data_malbac
_audit_creation_date               2022-09-26
_audit_creation_method
;
Olex2 1.5-dev
(compiled 2022.09.14 svn.r54dee7e0 for OlexSys, GUI svn.r6573)
;
_audit_contact_author_address      ?
_audit_contact_author_email        ?
_audit_contact_author_name         ''
_audit_contact_author_phone        ?
_publ_contact_author_id_orcid      ?
_publ_section_references
;
Bourhis, L.J., Dolomanov, O.V., Gildea, R.J., Howard, J.A.K., Puschmann, H.
 (2015). Acta Cryst. A71, 59-75.

Dolomanov, O.V., Bourhis, L.J., Gildea, R.J, Howard, J.A.K. & Puschmann, H.
 (2009), J. Appl. Cryst. 42, 339-341.
;
_chemical_formula_moiety           'C26 H20 Cl N2 O P Pd, 0.5(C7 H8)'
_chemical_formula_sum              'C29.5 H24 Cl N2 O P Pd'
_chemical_formula_weight           595.374
loop_
  _atom_type_symbol
  _atom_type_scat_dispersion_real
  _atom_type_scat_dispersion_imag
  _atom_type_scat_Cromer_Mann_a1
  _atom_type_scat_Cromer_Mann_a2
  _atom_type_scat_Cromer_Mann_a3
  _atom_type_scat_Cromer_Mann_a4
  _atom_type_scat_Cromer_Mann_b1
  _atom_type_scat_Cromer_Mann_b2
  _atom_type_scat_Cromer_Mann_b3
  _atom_type_scat_Cromer_Mann_b4
  _atom_type_scat_Cromer_Mann_c
  _atom_type_scat_source
  _atom_type_scat_dispersion_source
 C 0.00347 0.00161 2.31000 1.02000 1.58860 0.86500 20.84390 10.20750 0.56870
 51.65120 0.21560 'International Tables Volume C Table 6.1.1.4 (pp. 500-502)'
 'Henke, Gullikson and Davis, At. Data and Nucl. Data Tables, 1993, 54, 2'
 Cl 0.14875 0.16032 11.46040 7.19640 6.25560 1.64550 0.01040 1.16620 18.51940
 47.77840 -9.55740 'International Tables Volume C Table 6.1.1.4 (pp. 500-502)'
 'Henke, Gullikson and Davis, At. Data and Nucl. Data Tables, 1993, 54, 2'
 H 0.00000 0.00000 0.49300 0.32291 0.14019 0.04081 10.51090 26.12570 3.14236
 57.79970 0.00304 'International Tables Volume C Table 6.1.1.4 (pp. 500-502)'
 'Henke, Gullikson and Davis, At. Data and Nucl. Data Tables, 1993, 54, 2'
 N 0.00654 0.00323 12.21260 3.13220 2.01250 1.16630 0.00570 9.89330 28.99750
 0.58260 -11.52900 'International Tables Volume C Table 6.1.1.4 (pp. 500-502)'
 'Henke, Gullikson and Davis, At. Data and Nucl. Data Tables, 1993, 54, 2'
 O 0.01158 0.00612 3.04850 2.28680 1.54630 0.86700 13.27710 5.70110 0.32390
 32.90890 0.25080 'International Tables Volume C Table 6.1.1.4 (pp. 500-502)'
 'Henke, Gullikson and Davis, At. Data and Nucl. Data Tables, 1993, 54, 2'
 P 0.10435 0.09673 6.43450 4.17910 1.78000 1.49080 1.90670 27.15700 0.52600
 68.16450 1.11490 'International Tables Volume C Table 6.1.1.4 (pp. 500-502)'
 'Henke, Gullikson and Davis, At. Data and Nucl. Data Tables, 1993, 54, 2'
 Pd -0.98828 1.01485 19.33190 15.50170 5.29537 0.60584 0.69866 7.98929 25.20520
 76.89860 5.26593 'International Tables Volume C Table 6.1.1.4 (pp. 500-502)'
 'Henke, Gullikson and Davis, At. Data and Nucl. Data Tables, 1993, 54, 2'

_space_group_crystal_system        'triclinic'
_space_group_IT_number             2
_space_group_name_H-M_alt          'P -1'
_space_group_name_Hall             '-P 1'
loop_
  _space_group_symop_id
  _space_group_symop_operation_xyz
 1 x,y,z
 2 -x,-y,-z

_symmetry_Int_Tables_number        2
_cell_length_a                     10.551(2)
_cell_length_b                     14.251(3)
_cell_length_c                     9.551(2)
_cell_angle_alpha                  99.77(2)
_cell_angle_beta                   105.10(2)
_cell_angle_gamma                  104.77(2)
_cell_volume                       1297.1(5)
_cell_formula_units_Z              2
_cell_measurement_temperature      293(2)
_exptl_absorpt_coefficient_mu      0.906
_exptl_crystal_density_diffrn      1.524
_exptl_crystal_F_000               600.807
_diffrn_reflns_av_R_equivalents    0.0000
_diffrn_reflns_av_unetI/netI       0.0311
_diffrn_reflns_Laue_measured_fraction_full  0.9981
_diffrn_reflns_Laue_measured_fraction_max  0.9988
_diffrn_reflns_limit_h_max         14
_diffrn_reflns_limit_h_min         -14
_diffrn_reflns_limit_k_max         19
_diffrn_reflns_limit_k_min         -20
_diffrn_reflns_limit_l_max         5
_diffrn_reflns_limit_l_min         -13
_diffrn_reflns_number              7595
_diffrn_reflns_point_group_measured_fraction_full  0.9981
_diffrn_reflns_point_group_measured_fraction_max  0.9988
_diffrn_reflns_theta_full          25.2436
_diffrn_reflns_theta_max           30.05
_diffrn_reflns_theta_min           3.05
_diffrn_measured_fraction_theta_full  0.9981
_diffrn_measured_fraction_theta_max  0.9988
_diffrn_radiation_type             'Mo K\a'
_diffrn_radiation_wavelength       0.71078
_reflns_Friedel_coverage           0.0
_reflns_limit_h_max                14
_reflns_limit_h_min                -14
_reflns_limit_k_max                19
_reflns_limit_k_min                -20
_reflns_limit_l_max                13
_reflns_limit_l_min                0
_reflns_number_gt                  5024
_reflns_number_total               7595
_reflns_threshold_expression       I>=2u(I)
_computing_molecular_graphics      'Olex2 1.5-dev (Dolomanov et al., 2009)'
_computing_publication_material    'Olex2 1.5-dev (Dolomanov et al., 2009)'
_computing_structure_refinement    'olex2.refine 1.5-dev (Bourhis et al., 2015)'
_refine_diff_density_max           1.3818
_refine_diff_density_min           -1.6436
_refine_diff_density_rms           0.1354
_refine_ls_d_res_high              0.7097
_refine_ls_d_res_low               6.6752
_refine_ls_extinction_coef         0.0220
_refine_ls_extinction_expression   Fc^*^=kFc[1+0.001xFc^2^\l^3^/sin(2\q)]^-1/4^
_refine_ls_goodness_of_fit_ref     0.9084
_refine_ls_hydrogen_treatment      constr
_refine_ls_matrix_type             full
_refine_ls_number_constraints      54
_refine_ls_number_parameters       354
_refine_ls_number_reflns           7595
_refine_ls_number_restraints       118
_refine_ls_R_factor_all            0.0630
_refine_ls_R_factor_gt             0.0428
_refine_ls_restrained_S_all        0.9011
_refine_ls_shift/su_max            -0.0002
_refine_ls_shift/su_mean           0.0000
_refine_ls_structure_factor_coef   Fsqd
_refine_ls_weighting_details      
 'w=1/[\s^2^(Fo^2^)+(0.0706P)^2^+0.7805P] where P=(Fo^2^+2Fc^2^)/3'
_refine_ls_weighting_scheme        calc
_refine_ls_wR_factor_gt            0.1094
_refine_ls_wR_factor_ref           0.1170
_olex2_refinement_description
;
1. Fixed Uiso
 At 1.2 times of:
  All C(H) groups
 At 1.5 times of:
  All C(H,H,H) groups
2. Restrained distances
 C4-C10
 1.51 with sigma of 0.02
 C10-C11 \\sim C11-C13 \\sim C13-C1A \\sim C1A-C1B \\sim C1B-C1C \\sim C1C-C10
 with sigma of 0.02
 C10-C1B \\sim C10-C13 \\sim C1C-C1A \\sim C11-C1C \\sim C13-C1B \\sim C11-C1A
 with sigma of 0.04
 C4-C1C \\sim C4-C11
 with sigma of 0.04
3. Restrained planarity
 C4, C10, C11, C13, C1A, C1B, C1C
 with sigma of 0.1
4. Uiso/Uaniso restraints and constraints
C4 \\sim C10 \\sim C11 \\sim C13 \\sim C1A \\sim C1B \\sim C1C: within 2A with
sigma of 0.04 and sigma for terminal atoms of 0.08 within 2A
C13 \\sim C1A \\sim C1B: within 2A with sigma of 0.01 and sigma for terminal
atoms of 0.02 within 2A
C4 \\sim C10: within 2A with sigma of 0.01 and sigma for terminal atoms of 0.02
within 2A
5. Rigid body (RIGU) restrains
 C4, C10, C11, C13, C1A, C1B, C1C
 with sigma for 1-2 distances of 0.004 and sigma for 1-3 distances of 0.004
6. Others
 Fixed Sof: C4(0.5) H4a(0.5) H4b(0.5) H4c(0.5) C10(0.5) C11(0.5) H11(0.5)
 C13(0.5) H13(0.5) C1A(0.5) H1A(0.5) C1B(0.5) H1B(0.5) C1C(0.5) H1C(0.5)
7.a Aromatic/amide H refined with riding coordinates:
 C5(H5), C6(H6), C7(H7), C8(H8), C12(H12), C14(H14), C15(H15), C16(H16),
 C17(H17), C18(H18), C19(H19), C20(H20), C21(H21), C22(H22), C23(H23), C24(H24),
  C29(H29), C30(H30), C32(H32), C34(H34), C11(H11), C13(H13), C1A(H1A),
 C1B(H1B), C1C(H1C)
7.b Idealised Me refined as rotating group:
 C4(H4a,H4b,H4c)
;
loop_
  _atom_site_label
  _atom_site_type_symbol
  _atom_site_fract_x
  _atom_site_fract_y
  _atom_site_fract_z
  _atom_site_U_iso_or_equiv
  _atom_site_adp_type
  _atom_site_occupancy
  _atom_site_refinement_flags_posn
  _atom_site_refinement_flags_adp
  _atom_site_disorder_group
 Pd Pd 0.27736(2) 0.170004(16) 0.00004(3) 0.04674(9) Uani 1.000000 . . .
 P P 0.18939(7) 0.26029(5) 0.13622(8) 0.04016(15) Uani 1.000000 . . .
 Cl Cl 0.49493(8) 0.27123(8) 0.14061(13) 0.0812(3) Uani 1.000000 . . .
 O O 0.3475(2) 0.08278(15) -0.1389(2) 0.0508(5) Uani 1.000000 . . .
 N1 N 0.0963(2) 0.07651(17) -0.1408(3) 0.0428(5) Uani 1.000000 . . .
 C1 C 0.2572(3) 0.2741(2) 0.3368(3) 0.0455(6) Uani 1.000000 . . .
 C2 C 0.0031(3) 0.2041(2) 0.0880(3) 0.0431(5) Uani 1.000000 . . .
 C3 C 0.2151(3) 0.3861(2) 0.1066(3) 0.0465(6) Uani 1.000000 . . .
 C5 C -0.0634(3) 0.2446(2) 0.1794(4) 0.0528(7) Uani 1.000000 . . .
 H5 H -0.0109(3) 0.2952(2) 0.2660(4) 0.0634(8) Uiso 1.000000 R . .
 C6 C -0.2852(3) 0.1353(3) 0.0174(4) 0.0573(7) Uani 1.000000 . . .
 H6 H -0.3811(3) 0.1133(3) -0.0079(4) 0.0688(9) Uiso 1.000000 R . .
 C7 C -0.2205(3) 0.0922(2) -0.0714(4) 0.0540(7) Uani 1.000000 . . .
 H7 H -0.2740(3) 0.0399(2) -0.1555(4) 0.0649(8) Uiso 1.000000 R . .
 C8 C 0.1952(3) 0.2034(2) 0.4031(4) 0.0545(7) Uani 1.000000 . . .
 H8 H 0.1139(3) 0.1522(2) 0.3468(4) 0.0654(8) Uiso 1.000000 R . .
 C9 C -0.0761(3) 0.1248(2) -0.0387(3) 0.0448(6) Uani 1.000000 . . .
 C12 C -0.2061(3) 0.2111(3) 0.1438(4) 0.0584(8) Uani 1.000000 . . .
 H12 H -0.2485(3) 0.2400(3) 0.2055(4) 0.0700(9) Uiso 1.000000 R . .
 C14 C 0.3797(3) 0.3499(3) 0.4228(4) 0.0582(7) Uani 1.000000 . . .
 H14 H 0.4220(3) 0.3979(3) 0.3804(4) 0.0698(9) Uiso 1.000000 R . .
 C15 C 0.2894(6) 0.4162(3) 0.0132(6) 0.0935(15) Uani 1.000000 . . .
 H15 H 0.3250(6) 0.3720(3) -0.0353(6) 0.1122(18) Uiso 1.000000 R . .
 C16 C 0.4380(4) 0.3528(3) 0.5723(4) 0.0742(10) Uani 1.000000 . . .
 H16 H 0.5204(4) 0.4028(3) 0.6293(4) 0.0890(12) Uiso 1.000000 R . .
 C17 C 0.1659(4) -0.1067(3) -0.4914(4) 0.0699(9) Uani 1.000000 . . .
 H17 H 0.0764(4) -0.1036(3) -0.5083(4) 0.0839(11) Uiso 1.000000 R . .
 C18 C 0.2546(4) 0.2095(3) 0.5523(4) 0.0700(9) Uani 1.000000 . . .
 H18 H 0.2119(4) 0.1630(3) 0.5967(4) 0.0840(11) Uiso 1.000000 R . .
 C19 C 0.1644(5) 0.4536(3) 0.1741(6) 0.0868(13) Uani 1.000000 . . .
 H19 H 0.1161(5) 0.4367(3) 0.2397(6) 0.1042(16) Uiso 1.000000 R . .
 C20 C 0.3996(4) -0.0554(3) -0.3385(6) 0.0903(14) Uani 1.000000 . . .
 H20 H 0.4700(4) -0.0177(3) -0.2505(6) 0.1084(17) Uiso 1.000000 R . .
 C21 C 0.3766(4) 0.2838(3) 0.6369(4) 0.0727(10) Uani 1.000000 . . .
 H21 H 0.4167(4) 0.2868(3) 0.7372(4) 0.0873(12) Uiso 1.000000 R . .
 C22 C 0.1849(5) 0.5470(3) 0.1449(7) 0.0985(16) Uani 1.000000 . . .
 H22 H 0.1474(5) 0.5913(3) 0.1900(7) 0.1182(19) Uiso 1.000000 R . .
 C23 C 0.2558(5) 0.5764(3) 0.0551(5) 0.0814(12) Uani 1.000000 . . .
 H23 H 0.2672(5) 0.6395(3) 0.0365(5) 0.0977(14) Uiso 1.000000 R . .
 C24 C 0.4276(5) -0.1190(4) -0.4464(7) 0.1081(18) Uani 1.000000 . . .
 H24 H 0.5166(5) -0.1233(4) -0.4291(7) 0.130(2) Uiso 1.000000 R . .
 C29 C 0.1947(5) -0.1703(3) -0.5975(5) 0.0817(12) Uani 1.000000 . . .
 H29 H 0.1243(5) -0.2103(3) -0.6841(5) 0.0980(14) Uiso 1.000000 R . .
 C30 C 0.3105(7) 0.5117(4) -0.0081(6) 0.1123(19) Uani 1.000000 . . .
 H30 H 0.3640(7) 0.5318(4) -0.0676(6) 0.135(2) Uiso 1.000000 R . .
 N2 N 0.1103(3) 0.01000(19) -0.2587(3) 0.0501(5) Uani 1.000000 . . .
 C31 C 0.2410(3) 0.0198(2) -0.2442(4) 0.0501(6) Uani 1.000000 . . .
 C32 C -0.0267(3) 0.0684(2) -0.1445(3) 0.0476(6) Uani 1.000000 . . .
 H32 H -0.0952(3) 0.0201(2) -0.2252(3) 0.0571(7) Uiso 1.000000 R . .
 C33 C 0.2682(4) -0.0483(2) -0.3616(4) 0.0549(7) Uani 1.000000 . . .
 C34 C 0.3283(5) -0.1740(3) -0.5744(5) 0.0847(12) Uani 1.000000 . . .
 H34 H 0.3489(5) -0.2143(3) -0.6470(5) 0.1016(15) Uiso 1.000000 R . .
 C4 C 0.2189(15) 0.5138(14) 0.579(2) 0.129(4) Uani 0.500000 D U -1
 H4a H 0.240(3) 0.503(8) 0.678(6) 0.194(6) Uiso 0.500000 GR . -1
 H4b H 0.234(3) 0.462(6) 0.512(7) 0.194(6) Uiso 0.500000 GR . -1
 H4c H 0.2776(15) 0.578(3) 0.581(12) 0.194(6) Uiso 0.500000 GR . -1
 C10 C 0.0746(11) 0.5104(10) 0.5264(13) 0.109(3) Uani 0.500000 D U -1
 C11 C -0.0093(18) 0.4210(16) 0.5295(17) 0.118(6) Uani 0.500000 D U -1
 H11 H 0.0235(18) 0.3726(16) 0.5670(17) 0.141(7) Uiso 0.500000 R . -1
 C13 C -0.1468(15) 0.4099(10) 0.4715(14) 0.124(3) Uani 0.500000 D U -1
 H13 H -0.2111(15) 0.3556(10) 0.4821(14) 0.148(4) Uiso 0.500000 R . -1
 C1A C -0.1912(19) 0.4715(13) 0.403(2) 0.135(4) Uani 0.500000 D U -1
 H1A H -0.2833(19) 0.4502(13) 0.343(2) 0.162(4) Uiso 0.500000 R . -1
 C1B C -0.1105(14) 0.5675(10) 0.4124(13) 0.119(3) Uani 0.500000 D U -1
 H1B H -0.1458(14) 0.6172(10) 0.3833(13) 0.142(4) Uiso 0.500000 R . -1
 C1C C 0.0317(17) 0.5802(14) 0.4718(14) 0.102(4) Uani 0.500000 D U -1
 H1C H 0.0964(17) 0.6386(14) 0.4725(14) 0.123(5) Uiso 0.500000 R . -1

loop_
  _atom_site_aniso_label
  _atom_site_aniso_U_11
  _atom_site_aniso_U_22
  _atom_site_aniso_U_33
  _atom_site_aniso_U_12
  _atom_site_aniso_U_13
  _atom_site_aniso_U_23
 Pd 0.03699(12) 0.04643(13) 0.05995(15) 0.01396(8) 0.02299(9) 0.00846(9)
 P 0.0351(3) 0.0393(3) 0.0493(4) 0.0123(2) 0.0193(3) 0.0096(3)
 Cl 0.0376(4) 0.0826(6) 0.1046(7) 0.0093(4) 0.0244(4) -0.0122(5)
 O 0.0437(10) 0.0489(10) 0.0638(12) 0.0162(8) 0.0285(9) 0.0045(9)
 N1 0.0466(12) 0.0404(11) 0.0454(12) 0.0170(9) 0.0188(10) 0.0098(9)
 C1 0.0432(13) 0.0452(14) 0.0526(15) 0.0170(11) 0.0192(12) 0.0130(12)
 C2 0.0363(12) 0.0451(13) 0.0530(15) 0.0156(10) 0.0194(11) 0.0130(11)
 C3 0.0454(14) 0.0423(13) 0.0498(15) 0.0120(11) 0.0133(12) 0.0119(11)
 C5 0.0413(13) 0.0559(16) 0.0637(18) 0.0178(12) 0.0231(13) 0.0077(13)
 C6 0.0349(13) 0.0693(19) 0.073(2) 0.0193(13) 0.0227(13) 0.0192(16)
 C7 0.0324(12) 0.0619(18) 0.0624(18) 0.0133(12) 0.0126(12) 0.0080(14)
 C8 0.0558(17) 0.0513(16) 0.0614(18) 0.0186(13) 0.0237(14) 0.0170(14)
 C9 0.0353(12) 0.0518(15) 0.0532(15) 0.0170(11) 0.0182(11) 0.0170(12)
 C12 0.0465(15) 0.0657(19) 0.074(2) 0.0264(14) 0.0305(15) 0.0145(16)
 C14 0.0465(15) 0.0631(19) 0.0609(18) 0.0111(14) 0.0156(14) 0.0169(15)
 C15 0.141(4) 0.063(2) 0.116(4) 0.036(3) 0.092(3) 0.038(2)
 C16 0.0569(19) 0.088(3) 0.062(2) 0.0162(18) 0.0042(16) 0.0116(19)
 C17 0.084(3) 0.079(2) 0.061(2) 0.041(2) 0.0312(19) 0.0161(18)
 C18 0.081(2) 0.075(2) 0.070(2) 0.030(2) 0.033(2) 0.0354(19)
 C19 0.101(3) 0.058(2) 0.136(4) 0.037(2) 0.074(3) 0.037(2)
 C20 0.065(2) 0.088(3) 0.109(3) 0.024(2) 0.042(2) -0.018(2)
 C21 0.078(2) 0.087(3) 0.059(2) 0.036(2) 0.0167(18) 0.0263(19)
 C22 0.104(4) 0.061(2) 0.157(5) 0.044(2) 0.061(4) 0.038(3)
 C23 0.095(3) 0.055(2) 0.087(3) 0.018(2) 0.015(2) 0.031(2)
 C24 0.083(3) 0.107(4) 0.133(4) 0.037(3) 0.057(3) -0.019(3)
 C29 0.114(3) 0.080(3) 0.060(2) 0.046(3) 0.031(2) 0.0119(19)
 C30 0.171(6) 0.070(3) 0.120(4) 0.026(3) 0.084(4) 0.046(3)
 N2 0.0511(13) 0.0518(13) 0.0529(14) 0.0200(11) 0.0255(11) 0.0079(11)
 C31 0.0551(16) 0.0488(15) 0.0603(17) 0.0231(13) 0.0320(14) 0.0181(13)
 C32 0.0395(13) 0.0513(15) 0.0523(15) 0.0156(11) 0.0165(12) 0.0093(12)
 C33 0.0651(18) 0.0497(16) 0.0637(19) 0.0221(14) 0.0383(16) 0.0158(14)
 C34 0.117(4) 0.077(3) 0.084(3) 0.050(3) 0.058(3) 0.014(2)
 C4 0.121(6) 0.151(8) 0.111(8) 0.057(4) 0.037(4) 0.002(5)
 C10 0.110(6) 0.116(5) 0.100(6) 0.046(4) 0.034(4) 0.003(3)
 C11 0.146(7) 0.105(7) 0.104(12) 0.042(4) 0.053(4) 0.008(4)
 C13 0.147(7) 0.120(7) 0.097(6) 0.040(4) 0.047(4) -0.001(4)
 C1A 0.141(7) 0.138(7) 0.118(7) 0.045(4) 0.044(4) 0.008(4)
 C1B 0.127(6) 0.118(6) 0.105(6) 0.047(4) 0.037(4) 0.000(4)
 C1C 0.131(7) 0.102(6) 0.083(9) 0.048(4) 0.050(4) 0.006(4)

loop_
  _geom_bond_atom_site_label_1
  _geom_bond_atom_site_label_2
  _geom_bond_distance
  _geom_bond_site_symmetry_2
  _geom_bond_publ_flag
 Pd P 2.2088(8) . ?
 Pd Cl 2.2807(12) . ?
 Pd O 2.0676(19) . ?
 Pd N1 1.997(2) . ?
 P C1 1.819(3) . ?
 P C2 1.821(3) . ?
 P C3 1.825(3) . ?
 O C31 1.292(4) . ?
 N1 N2 1.409(3) . ?
 N1 C32 1.264(3) . ?
 C1 C8 1.393(4) . ?
 C1 C14 1.395(4) . ?
 C2 C5 1.393(4) . ?
 C2 C9 1.403(4) . ?
 C3 C15 1.385(5) . ?
 C3 C19 1.362(5) . ?
 C5 H5 0.9300 . ?
 C5 C12 1.387(4) . ?
 C6 H6 0.9300 . ?
 C6 C7 1.378(4) . ?
 C6 C12 1.377(5) . ?
 C7 H7 0.9300 . ?
 C7 C9 1.406(4) . ?
 C8 H8 0.9300 . ?
 C8 C18 1.377(5) . ?
 C9 C32 1.467(4) . ?
 C12 H12 0.9300 . ?
 C14 H14 0.9300 . ?
 C14 C16 1.388(5) . ?
 C15 H15 0.9300 . ?
 C15 C30 1.380(6) . ?
 C16 H16 0.9300 . ?
 C16 C21 1.363(6) . ?
 C17 H17 0.9300 . ?
 C17 C29 1.389(5) . ?
 C17 C33 1.374(5) . ?
 C18 H18 0.9300 . ?
 C18 C21 1.380(6) . ?
 C19 H19 0.9300 . ?
 C19 C22 1.381(6) . ?
 C20 H20 0.9300 . ?
 C20 C24 1.395(5) . ?
 C20 C33 1.379(5) . ?
 C21 H21 0.9300 . ?
 C22 H22 0.9300 . ?
 C22 C23 1.330(6) . ?
 C23 H23 0.9300 . ?
 C23 C30 1.347(7) . ?
 C24 H24 0.9300 . ?
 C24 C34 1.340(7) . ?
 C29 H29 0.9300 . ?
 C29 C34 1.385(6) . ?
 C30 H30 0.9300 . ?
 N2 C31 1.317(4) . ?
 C31 C33 1.491(4) . ?
 C32 H32 0.9300 . ?
 C34 H34 0.9300 . ?
 C4 H4a 0.9600 . ?
 C4 H4b 0.9600 . ?
 C4 H4c 0.9600 . ?
 C4 C10 1.459(14) . ?
 C10 C11 1.363(18) . ?
 C10 C1C 1.322(16) . ?
 C11 H11 0.9300 . ?
 C11 C13 1.368(16) . ?
 C13 H13 0.9300 . ?
 C13 C1A 1.292(17) . ?
 C1A H1A 0.9300 . ?
 C1A C1B 1.389(17) . ?
 C1B H1B 0.9300 . ?
 C1B C1C 1.411(16) . ?
 C1C H1C 0.9300 . ?

loop_
  _geom_angle_atom_site_label_1
  _geom_angle_atom_site_label_2
  _geom_angle_atom_site_label_3
  _geom_angle
  _geom_angle_site_symmetry_1
  _geom_angle_site_symmetry_3
  _geom_angle_publ_flag
 Cl Pd P 90.05(3) . . ?
 O Pd P 176.20(6) . . ?
 O Pd Cl 93.38(6) . . ?
 N1 Pd P 96.10(6) . . ?
 N1 Pd Cl 173.48(7) . . ?
 N1 Pd O 80.40(8) . . ?
 C1 P Pd 114.29(9) . . ?
 C2 P Pd 111.63(9) . . ?
 C2 P C1 105.03(13) . . ?
 C3 P Pd 112.28(10) . . ?
 C3 P C1 107.37(13) . . ?
 C3 P C2 105.61(12) . . ?
 C31 O Pd 107.93(16) . . ?
 N2 N1 Pd 113.08(17) . . ?
 C32 N1 Pd 131.7(2) . . ?
 C32 N1 N2 115.2(2) . . ?
 C8 C1 P 120.3(2) . . ?
 C14 C1 P 120.1(2) . . ?
 C14 C1 C8 119.3(3) . . ?
 C5 C2 P 117.9(2) . . ?
 C9 C2 P 123.09(19) . . ?
 C9 C2 C5 119.0(2) . . ?
 C15 C3 P 119.9(3) . . ?
 C19 C3 P 122.6(3) . . ?
 C19 C3 C15 117.5(3) . . ?
 H5 C5 C2 119.33(17) . . ?
 C12 C5 C2 121.3(3) . . ?
 C12 C5 H5 119.33(19) . . ?
 C7 C6 H6 120.43(18) . . ?
 C12 C6 H6 120.43(17) . . ?
 C12 C6 C7 119.1(3) . . ?
 H7 C7 C6 118.98(18) . . ?
 C9 C7 C6 122.0(3) . . ?
 C9 C7 H7 118.98(18) . . ?
 H8 C8 C1 120.09(18) . . ?
 C18 C8 C1 119.8(3) . . ?
 C18 C8 H8 120.1(2) . . ?
 C7 C9 C2 118.3(2) . . ?
 C32 C9 C2 127.8(2) . . ?
 C32 C9 C7 113.9(3) . . ?
 C6 C12 C5 120.1(3) . . ?
 H12 C12 C5 119.93(19) . . ?
 H12 C12 C6 119.93(17) . . ?
 H14 C14 C1 120.30(18) . . ?
 C16 C14 C1 119.4(3) . . ?
 C16 C14 H14 120.3(2) . . ?
 H15 C15 C3 120.0(2) . . ?
 C30 C15 C3 120.1(4) . . ?
 C30 C15 H15 120.0(3) . . ?
 H16 C16 C14 119.4(2) . . ?
 C21 C16 C14 121.1(4) . . ?
 C21 C16 H16 119.4(2) . . ?
 C29 C17 H17 119.6(3) . . ?
 C33 C17 H17 119.61(19) . . ?
 C33 C17 C29 120.8(4) . . ?
 H18 C18 C8 119.6(2) . . ?
 C21 C18 C8 120.9(3) . . ?
 C21 C18 H18 119.6(2) . . ?
 H19 C19 C3 120.0(2) . . ?
 C22 C19 C3 119.9(4) . . ?
 C22 C19 H19 120.0(3) . . ?
 C24 C20 H20 119.8(3) . . ?
 C33 C20 H20 119.8(2) . . ?
 C33 C20 C24 120.4(4) . . ?
 C18 C21 C16 119.5(3) . . ?
 H21 C21 C16 120.3(2) . . ?
 H21 C21 C18 120.3(2) . . ?
 H22 C22 C19 118.5(3) . . ?
 C23 C22 C19 122.9(4) . . ?
 C23 C22 H22 118.5(3) . . ?
 H23 C23 C22 121.2(3) . . ?
 C30 C23 C22 117.7(4) . . ?
 C30 C23 H23 121.2(3) . . ?
 H24 C24 C20 119.5(3) . . ?
 C34 C24 C20 121.1(4) . . ?
 C34 C24 H24 119.5(2) . . ?
 H29 C29 C17 120.0(3) . . ?
 C34 C29 C17 120.0(4) . . ?
 C34 C29 H29 120.0(3) . . ?
 C23 C30 C15 121.8(5) . . ?
 H30 C30 C15 119.1(3) . . ?
 H30 C30 C23 119.1(3) . . ?
 C31 N2 N1 111.9(2) . . ?
 N2 C31 O 126.5(3) . . ?
 C33 C31 O 117.0(3) . . ?
 C33 C31 N2 116.5(3) . . ?
 C9 C32 N1 128.7(3) . . ?
 H32 C32 N1 115.65(17) . . ?
 H32 C32 C9 115.65(15) . . ?
 C20 C33 C17 118.3(3) . . ?
 C31 C33 C17 122.4(3) . . ?
 C31 C33 C20 119.3(3) . . ?
 C29 C34 C24 119.4(4) . . ?
 H34 C34 C24 120.3(2) . . ?
 H34 C34 C29 120.3(3) . . ?
 H4b C4 H4a 109.5 . . ?
 H4c C4 H4a 109.5 . . ?
 H4c C4 H4b 109.5 . . ?
 C10 C4 H4a 109.5 . . ?
 C10 C4 H4b 109.5 . . ?
 C10 C4 H4c 109.5 . . ?
 C11 C10 C4 109.9(13) . . ?
 C1C C10 C4 124.6(14) . . ?
 C1C C10 C11 125.2(13) . . ?
 H11 C11 C10 123.5(9) . . ?
 C13 C11 C10 113.0(16) . . ?
 C13 C11 H11 123.5(12) . . ?
 H13 C13 C11 118.5(12) . . ?
 C1A C13 C11 122.9(18) . . ?
 C1A C13 H13 118.5(10) . . ?
 H1A C1A C13 117.9(10) . . ?
 C1B C1A C13 124.3(17) . . ?
 C1B C1A H1A 117.9(10) . . ?
 H1B C1B C1A 124.2(10) . . ?
 C1C C1B C1A 111.5(14) . . ?
 C1C C1B H1B 124.2(10) . . ?
 C1B C1C C10 121.1(15) . . ?
 H1C C1C C10 119.4(9) . . ?
 H1C C1C C1B 119.4(10) . . ?

loop_
  _geom_torsion_atom_site_label_1
  _geom_torsion_atom_site_label_2
  _geom_torsion_atom_site_label_3
  _geom_torsion_atom_site_label_4
  _geom_torsion
  _geom_torsion_site_symmetry_1
  _geom_torsion_site_symmetry_2
  _geom_torsion_site_symmetry_3
  _geom_torsion_site_symmetry_4
  _geom_torsion_publ_flag
 Pd O C31 N2 -2.1(2) . . . . ?
 Pd O C31 C33 177.60(17) . . . . ?
 Pd N1 N2 C31 4.3(2) . . . . ?
 Pd N1 C32 C9 -2.8(3) . . . . ?
 P C1 C8 C18 174.1(3) . . . . ?
 P C1 C14 C16 -173.1(3) . . . . ?
 P C2 C5 C12 175.0(2) . . . . ?
 P C2 C9 C7 -175.3(2) . . . . ?
 P C2 C9 C32 5.5(3) . . . . ?
 P C3 C15 C30 -179.2(4) . . . . ?
 P C3 C19 C22 -178.7(4) . . . . ?
 O C31 N2 N1 -1.4(3) . . . . ?
 O C31 C33 C17 -169.2(3) . . . . ?
 O C31 C33 C20 12.5(4) . . . . ?
 N1 N2 C31 C33 178.9(2) . . . . ?
 N1 C32 C9 C2 3.1(4) . . . . ?
 N1 C32 C9 C7 -176.1(3) . . . . ?
 C1 C8 C18 C21 -1.3(4) . . . . ?
 C1 C14 C16 C21 -0.9(4) . . . . ?
 C2 C5 C12 C6 1.1(4) . . . . ?
 C2 C9 C7 C6 -0.4(3) . . . . ?
 C3 C15 C30 C23 -2.8(6) . . . . ?
 C3 C19 C22 C23 -1.6(6) . . . . ?
 C5 C12 C6 C7 1.1(4) . . . . ?
 C6 C7 C9 C32 178.9(3) . . . . ?
 C8 C18 C21 C16 0.9(5) . . . . ?
 C14 C16 C21 C18 0.1(5) . . . . ?
 C15 C30 C23 C22 2.9(8) . . . . ?
 C17 C29 C34 C24 2.7(6) . . . . ?
 C17 C33 C20 C24 1.3(5) . . . . ?
 C17 C33 C31 N2 10.6(4) . . . . ?
 C19 C22 C23 C30 -0.7(7) . . . . ?
 C20 C24 C34 C29 -2.3(7) . . . . ?
 C20 C33 C31 N2 -167.8(4) . . . . ?
 C4 C10 C11 C13 -175.6(11) . . . . ?
 C4 C10 C1C C1B 174.9(12) . . . . ?
 C10 C11 C13 C1A 9.0(15) . . . . ?
 C10 C1C C1B C1A -7.7(13) . . . . ?
 C11 C13 C1A C1B -17.7(14) . . . . ?
 C13 C1A C1B C1C 16(2) . . . . ?

loop_
  _diffrn_refln_index_h
  _diffrn_refln_index_k
  _diffrn_refln_index_l
  _diffrn_refln_intensity_net
  _diffrn_refln_intensity_u
 -2 0 0 17931.98 97.99
 -3 0 0 43.21 3.59
 -4 0 0 6506.44 32.14
 -5 0 0 710.15 12.17
 -6 0 0 331.31 9.43
 -7 0 0 107.4 6.44
 -8 0 0 72.23 5.98
 -9 0 0 1097.35 21.23
 -10 0 0 292.8 12.39
 -11 0 0 378.47 15.04
 -12 0 0 5.36 10.84
 -13 0 0 203.49 12.66
 -13 -1 0 3.2 12.57
 -12 -1 0 255.91 13.51
 -11 -1 0 0.71 9.68
 -10 -1 0 629.95 18.03
 -9 -1 0 46.65 5.51
 -8 -1 0 173.7 8.62
 -7 -1 0 542.78 13.26
 -6 -1 0 23.56 3.49
 -5 -1 0 2212.79 22.14
 -4 -1 0 87.34 4.82
 -3 -1 0 7514.8 31.09
 -2 -1 0 111.47 4.39
 -2 1 0 4306.9 17.73
 -3 1 0 794.72 9.97
 -4 1 0 406.77 8.3
 -5 1 0 51.59 3.95
 -6 1 0 3054.48 26.95
 -7 1 0 47.71 4.6
 -8 1 0 817.16 17.06
 -9 1 0 33.18 5.11
 -10 1 0 568.65 16.63
 -11 1 0 405.08 15.06
 -12 1 0 174.61 11.16
 -13 1 0 28.22 12.33
 -14 2 0 142.51 11.65
 -13 2 0 29.31 12.24
 -12 2 0 185.99 10.93
 -11 2 0 71.17 7.47
 -10 2 0 1032.41 21.79
 -9 2 0 1179.32 21.92
 -8 2 0 427.16 12.47
 -7 2 0 272.7 9.2
 -6 2 0 3004.07 26.59
 -5 2 0 541.87 10.32
 -4 2 0 49.78 3.73
 -3 2 0 2783.7 17.84
 -2 2 0 198.19 4.52
 1 -2 0 2509.55 11.92
 0 -2 0 2174.18 11
 -1 -2 0 1112.44 9.62
 -2 -2 0 423.56 7.59
 -3 -2 0 4202.98 24.89
 -4 -2 0 9178.6 41.52
 -5 -2 0 41.98 3.98
 -6 -2 0 619.24 13.31
 -7 -2 0 145.28 7.34
 -8 -2 0 374.04 12.51
 -9 -2 0 399.51 13.84
 -10 -2 0 5.59 8.79
 -11 -2 0 78.09 7.41
 -12 -2 0 81.11 9.04
 -13 -2 0 88.37 9.19
 -12 -3 0 43.97 6.52
 -11 -3 0 93 8.18
 -10 -3 0 69.52 6.93
 -9 -3 0 295.34 12.31
 -8 -3 0 153.4 8.61
 -7 -3 0 628.12 15.31
 -6 -3 0 364.14 10.77
 -5 -3 0 1883.68 22.16
 -4 -3 0 4474.23 30.61
 -3 -3 0 3367.34 23.99
 -2 -3 0 8652.63 33.96
 -1 -3 0 864.82 9.99
 0 -3 0 8320.08 69.7
 1 -3 0 5729.78 21.49
 2 -3 0 9653.67 79.84
 -3 3 0 10.36 3.22
 -4 3 0 343.65 7.56
 -5 3 0 134.92 5.6
 -6 3 0 17.51 3.22
 -7 3 0 2538.34 27.07
 -8 3 0 37.62 4.92
 -9 3 0 850.83 18.41
 -10 3 0 32.38 5.26
 -11 3 0 756.15 20.24
 -12 3 0 7.56 10.06
 -13 3 0 6.98 11.31
 -14 3 0 31.1 13.36
 -14 4 0 0.9 12.35
 -13 4 0 4.95 11.25
 -12 4 0 1.21 9.92
 -11 4 0 174.92 10.09
 -10 4 0 645.49 17.39
 -9 4 0 2.69 6.82
 -8 4 0 1698.52 23.87
 -7 4 0 322.42 9.88
 -6 4 0 4163.21 32.29
 -5 4 0 873.95 13.25
 -4 4 0 588.33 9.96
 3 -4 0 133.94 4.94
 2 -4 0 1012.49 11.23
 1 -4 0 525.93 8.04
 0 -4 0 3.46 3.49
 -1 -4 0 2107.18 16.79
 -2 -4 0 82.5 4.43
 -3 -4 0 7829.28 38.89
 -4 -4 0 821.77 14.03
 -5 -4 0 1770.07 22.63
 -6 -4 0 20.2 4.29
 -7 -4 0 1010 19.94
 -8 -4 0 918.5 20.68
 -9 -4 0 -0.89 8.7
 -10 -4 0 10.87 9.73
 -11 -4 0 2.11 10.75
 -12 -4 0 117.49 10.27
 -12 -5 0 -0.89 12.95
 -11 -5 0 49.74 7.32
 -10 -5 0 17.35 10.57
 -9 -5 0 1.11 8.95
 -8 -5 0 587.89 17
 -7 -5 0 56.5 6.07
 -6 -5 0 1224.97 21.25
 -5 -5 0 441.17 12
 -4 -5 0 2985.96 28.09
 -3 -5 0 100.03 5.49
 -2 -5 0 5986.04 33.54
 -1 -5 0 2245.85 19.17
 0 -5 0 950.05 11.89
 1 -5 0 38.94 3.5
 2 -5 0 522.82 8.88
 3 -5 0 2510.67 19.78
 4 -5 0 60.68 3.95
 -5 5 0 3083.32 25.75
 -6 5 0 5.05 4.75
 -7 5 0 2670.35 28.23
 -8 5 0 867 17.3
 -9 5 0 163.06 8.52
 -10 5 0 162.95 9.2
 -11 5 0 55.08 6.38
 -12 5 0 185.53 10.97
 -13 5 0 28.69 11.83
 -14 5 0 25.38 12.73
 -14 6 0 87.39 8.97
 -13 6 0 31.2 11.92
 -12 6 0 82.36 7.35
 -11 6 0 236.12 11.25
 -10 6 0 4.01 7.75
 -9 6 0 516.6 14.54
 -8 6 0 58.61 5.54
 -7 6 0 2051.93 25.11
 -6 6 0 1641.08 20.71
 5 -6 0 791.57 13.37
 4 -6 0 842.19 13
 3 -6 0 1454.81 16.21
 2 -6 0 2456.87 20.39
 1 -6 0 1.28 3.57
 0 -6 0 2.29 3.7
 -1 -6 0 1172.71 15.51
 -2 -6 0 2269.22 22.48
 -3 -6 0 1502.76 19.68
 -4 -6 0 159.82 7.33
 -5 -6 0 1198.68 20.14
 -6 -6 0 379.83 12.68
 -7 -6 0 1423.65 25.12
 -8 -6 0 21.28 9.33
 -9 -6 0 64.36 7.16
 -10 -6 0 -0.83 11.03
 -11 -6 0 76.71 8.55
 -11 -7 0 -0.4 13
 -10 -7 0 90.02 8.81
 -9 -7 0 213.34 11.82
 -8 -7 0 165.23 10
 -7 -7 0 309.73 13
 -6 -7 0 463.86 14.46
 -5 -7 0 1872.77 26.44
 -4 -7 0 97.81 6.24
 -3 -7 0 41.97 4.48
 -2 -7 0 50.32 4.59
 -1 -7 0 1183.91 16.31
 0 -7 0 577.68 11
 1 -7 0 408.29 9.16
 2 -7 0 573.98 10.8
 3 -7 0 1304.14 16.44
 4 -7 0 3493.88 27.91
 5 -7 0 14.42 2.99
 6 -7 0 1911.45 23.21
 -7 7 0 97.24 6.19
 -8 7 0 1483.71 23.31
 -9 7 0 289.72 11.19
 -10 7 0 156.7 8.69
 -11 7 0 17.4 9.1
 -12 7 0 33.43 5.47
 -13 7 0 300.29 14.66
 -14 7 0 2.31 12.28
 -14 8 0 73.94 8.57
 -13 8 0 -1.9 11.98
 -12 8 0 142.76 9.72
 -11 8 0 2.16 9.07
 -10 8 0 192.35 9.95
 -9 8 0 36.22 4.89
 -8 8 0 18.92 7.2
 7 -8 0 1442.23 21.88
 6 -8 0 70.23 5.21
 5 -8 0 1581.12 20.9
 4 -8 0 174.74 7.22
 3 -8 0 5891.79 37.04
 2 -8 0 980.47 15.04
 1 -8 0 1890.12 21.05
 0 -8 0 335.19 9.26
 -1 -8 0 1448.57 19.61
 -2 -8 0 422.82 11.36
 -3 -8 0 15.49 6.08
 -4 -8 0 363.57 11.87
 -5 -8 0 24.68 4.97
 -6 -8 0 278.13 12.01
 -7 -8 0 203.01 10.75
 -8 -8 0 192.19 11.14
 -9 -8 0 11.16 11.15
 -10 -8 0 40.66 13.61
 -10 -9 0 22.73 13.69
 -9 -9 0 181.53 12.15
 -8 -9 0 2.74 10.51
 -7 -9 0 169.65 10.24
 -6 -9 0 15.27 8.79
 -5 -9 0 428.96 13.96
 -4 -9 0 69.68 6.04
 -3 -9 0 65.6 5.67
 -2 -9 0 409.6 11.86
 -1 -9 0 428.34 11.74
 0 -9 0 2105.44 24.24
 1 -9 0 336.15 9.8
 2 -9 0 2455.23 25.51
 3 -9 0 549.22 12.39
 4 -9 0 5224.41 38.1
 5 -9 0 718.6 14.88
 6 -9 0 636.13 14.34
 7 -9 0 119.84 7.2
 8 -9 0 158.12 8.39
 -9 9 0 937.12 20.29
 -10 9 0 1.57 8.59
 -11 9 0 92.14 7.76
 -12 9 0 10.22 10.6
 -13 9 0 307.97 15.26
 -14 9 0 25.19 13.44
 -14 10 0 35.72 14
 -13 10 0 165.69 12
 -12 10 0 128.04 9.55
 -11 10 0 133.07 9.18
 -10 10 0 602 17.68
 9 -10 0 630.13 17.03
 8 -10 0 154.01 8.44
 7 -10 0 9.35 6.88
 6 -10 0 584.05 14.39
 5 -10 0 267.14 9.8
 4 -10 0 494.03 12.66
 3 -10 0 723.64 14.87
 2 -10 0 270.33 9.44
 1 -10 0 1489.23 21.25
 0 -10 0 162.82 8.42
 -1 -10 0 1978.24 26.16
 -2 -10 0 2.7 6.55
 -3 -10 0 324.94 11.78
 -4 -10 0 24.75 8.37
 -5 -10 0 217.99 10.9
 -6 -10 0 88.61 7.76
 -7 -10 0 28.74 10.56
 -8 -10 0 88.67 8.77
 -9 -10 0 12.21 12.77
 -8 -11 0 38.89 6.76
 -7 -11 0 -2.13 10.71
 -6 -11 0 37.36 5.8
 -5 -11 0 11.85 9.11
 -4 -11 0 234.22 11.24
 -3 -11 0 203 9.97
 -2 -11 0 373.94 12.7
 -1 -11 0 224.88 9.98
 0 -11 0 1353.09 22.29
 1 -11 0 898.63 17.81
 2 -11 0 239.46 9.43
 3 -11 0 18.22 6.34
 4 -11 0 7.43 6.54
 5 -11 0 129.69 7.46
 6 -11 0 623.13 15.67
 7 -11 0 23.24 4.09
 8 -11 0 70.77 6.19
 9 -11 0 15.79 8.93
 10 -11 0 580.78 17.89
 -11 11 0 25.4 10.73
 -12 11 0 142.21 10.57
 -13 11 0 13.19 12.26
 -13 12 0 99.78 9.43
 -12 12 0 0.67 11.22
 11 -12 0 292.62 13.64
 10 -12 0 15.71 10.07
 9 -12 0 193.24 10.29
 8 -12 0 41.41 5.41
 7 -12 0 139.31 8.52
 6 -12 0 120.73 7.82
 5 -12 0 233.36 10.03
 4 -12 0 213.92 9.44
 3 -12 0 59.71 5.49
 2 -12 0 786.41 17.39
 1 -12 0 221.38 10.04
 0 -12 0 831.31 18.44
 -1 -12 0 233.06 10.63
 -2 -12 0 379.69 13.52
 -3 -12 0 143.06 9.17
 -4 -12 0 41.08 5.93
 -5 -12 0 176.97 10.87
 -6 -12 0 2.99 10.76
 -7 -12 0 24.08 12.12
 -8 -12 0 5.55 12.92
 -7 -13 0 15.38 12.67
 -6 -13 0 -2.11 11.86
 -5 -13 0 86.52 8.38
 -4 -13 0 61.34 7.04
 -3 -13 0 427.09 15.79
 -2 -13 0 0.68 8.57
 -1 -13 0 350.02 13.31
 0 -13 0 17.98 8.13
 1 -13 0 878.8 19.75
 2 -13 0 47.76 5.66
 3 -13 0 230.46 10.32
 4 -13 0 28.31 4.49
 5 -13 0 51.83 6
 6 -13 0 480.45 14.9
 7 -13 0 -0.4 8.32
 8 -13 0 345.58 13.6
 9 -13 0 3.89 8.98
 10 -13 0 313.27 14.31
 11 -13 0 34 11.72
 12 -13 0 58.96 7.29
 -13 13 0 22.87 13.06
 12 -14 0 36.8 13.1
 11 -14 0 43.19 6.3
 10 -14 0 27.37 11.16
 9 -14 0 301.73 13.58
 8 -14 0 311.89 13.4
 7 -14 0 459.66 16.01
 6 -14 0 204.34 10.54
 5 -14 0 230.19 10.74
 4 -14 0 66.17 6.25
 3 -14 0 20.7 8.52
 2 -14 0 133.85 8.49
 1 -14 0 121.14 8.73
 0 -14 0 62.5 6.4
 -1 -14 0 76.22 7.38
 -2 -14 0 378.84 14.85
 -3 -14 0 13.67 10.51
 -4 -14 0 216.91 12.79
 -5 -14 0 2.26 11.49
 -6 -14 0 61.09 7.7
 -5 -15 0 36.17 13.38
 -4 -15 0 27.21 12.79
 -3 -15 0 209.19 12.56
 -2 -15 0 126.93 10.13
 -1 -15 0 26.5 10.56
 0 -15 0 11.33 9.31
 1 -15 0 4.59 9.21
 2 -15 0 156.18 9.96
 3 -15 0 7.82 8.75
 4 -15 0 17.98 9.11
 5 -15 0 171.89 10.25
 6 -15 0 123.37 8.72
 7 -15 0 389.93 15.2
 8 -15 0 47.39 6.34
 9 -15 0 173.03 10.9
 10 -15 0 20.75 11.48
 11 -15 0 85.41 8.83
 12 -15 0 2.12 12.68
 11 -16 0 10.99 12.34
 10 -16 0 66.68 7.86
 9 -16 0 -3.37 11.4
 8 -16 0 451.73 17.48
 7 -16 0 4.07 10.38
 6 -16 0 231.49 12.16
 5 -16 0 26.29 5.32
 4 -16 0 268.91 12.88
 3 -16 0 31.1 5.59
 2 -16 0 170.95 10.42
 1 -16 0 -0.33 10.05
 0 -16 0 -0.95 9.99
 -1 -16 0 26.43 11.22
 -2 -16 0 12.38 11.49
 -3 -16 0 21.88 12.65
 -4 -16 0 5.53 12.75
 -3 -17 0 3.47 12.63
 -2 -17 0 22.83 12.82
 -1 -17 0 1.26 11.62
 0 -17 0 2.64 11.15
 1 -17 0 31.35 11.86
 2 -17 0 -4.69 10.94
 3 -17 0 231.5 12.69
 4 -17 0 10.5 10.88
 5 -17 0 444.07 17.22
 6 -17 0 -0.95 10.71
 7 -17 0 210.25 12.64
 8 -17 0 30.48 12.27
 9 -17 0 118.5 10.2
 10 -17 0 10.95 12.31
 9 -18 0 22.47 13.18
 8 -18 0 17.59 12.39
 7 -18 0 3.36 11.6
 6 -18 0 111.62 9.12
 5 -18 0 10.31 11.69
 4 -18 0 143.96 11.18
 3 -18 0 1.38 11.28
 2 -18 0 102.55 9.46
 1 -18 0 -3.06 11.77
 0 -18 0 34.31 13.18
 -1 -18 0 5.7 12.8
 1 -19 0 37.21 13.84
 2 -19 0 13.99 12.76
 3 -19 0 77.45 8.81
 4 -19 0 75.85 8.97
 5 -19 0 76.75 8.9
 6 -19 0 32.89 12.98
 7 -19 0 9.81 12.79
 8 -19 0 18.64 13.22
 7 -19 -1 -0.64 12.75
 6 -19 -1 6.5 12.69
 5 -19 -1 26.8 13.37
 4 -19 -1 9.61 12.74
 3 -19 -1 28.88 13.62
 2 -19 -1 3.12 13.01
 0 -18 -1 76.34 9.09
 1 -18 -1 -6.79 12.87
 2 -18 -1 63.78 8.07
 3 -18 -1 6.02 11.84
 4 -18 -1 166.57 11.65
 5 -18 -1 1.52 11.65
 6 -18 -1 36.99 6.14
 7 -18 -1 -0.14 11.89
 8 -18 -1 0.63 12.07
 9 -18 -1 7.33 12.72
 10 -17 -1 20.86 12.71
 9 -17 -1 21.58 12.29
 8 -17 -1 4.65 11.31
 7 -17 -1 102.08 8.92
 6 -17 -1 12.68 10.94
 5 -17 -1 434.58 17.59
 4 -17 -1 27.24 11.56
 3 -17 -1 199.56 12.52
 2 -17 -1 24.91 11.68
 1 -17 -1 94.4 9.14
 0 -17 -1 21.88 12.32
 -1 -17 -1 23.34 12.83
 -2 -17 -1 9.66 12.7
 -3 -16 -1 9.1 12.57
 -2 -16 -1 1.33 11.69
 -1 -16 -1 96.01 8.78
 0 -16 -1 2.67 10.47
 1 -16 -1 24.18 11.01
 2 -16 -1 64.13 7.27
 3 -16 -1 217.95 11.88
 4 -16 -1 349.6 14.92
 5 -16 -1 159.43 10.47
 6 -16 -1 109.28 8.71
 7 -16 -1 23.43 10.75
 8 -16 -1 208.89 12.07
 9 -16 -1 4.45 10.9
 10 -16 -1 34.3 12.35
 11 -16 -1 -0.01 12.33
 12 -15 -1 7.12 12.43
 11 -15 -1 54.75 7.13
 10 -15 -1 -1.97 11.16
 9 -15 -1 141.09 10.01
 8 -15 -1 68.47 7.82
 7 -15 -1 97.81 8.1
 6 -15 -1 256.97 12.4
 5 -15 -1 116.38 8.91
 4 -15 -1 174.43 10.11
 3 -15 -1 9 9.22
 2 -15 -1 288.42 13.04
 1 -15 -1 -0.33 9.1
 0 -15 -1 3.59 9.53
 -1 -15 -1 110.95 8.81
 -2 -15 -1 21.92 11.62
 -3 -15 -1 88.13 8.8
 -4 -15 -1 22.72 12.81
 -5 -14 -1 2.45 12.21
 -4 -14 -1 152.54 10.93
 -3 -14 -1 -4.8 10.81
 -2 -14 -1 198.34 11.56
 -1 -14 -1 13.37 9.67
 0 -14 -1 0.48 8.64
 1 -14 -1 39.62 5.77
 2 -14 -1 -0.69 8.33
 3 -14 -1 328.16 12.91
 4 -14 -1 140.59 8.79
 5 -14 -1 434.14 14.72
 6 -14 -1 -4.37 8.87
 7 -14 -1 483.81 16.28
 8 -14 -1 209.18 11.44
 9 -14 -1 356.29 14.76
 10 -14 -1 28.58 11.03
 11 -14 -1 41.01 6.56
 12 -14 -1 92.6 8.93
 13 -13 -1 51.33 7.38
 12 -13 -1 56.77 7.42
 11 -13 -1 23.65 11.37
 10 -13 -1 363.53 15.12
 9 -13 -1 1.75 9.19
 8 -13 -1 923.84 22
 7 -13 -1 32.72 5.64
 6 -13 -1 557 16.27
 5 -13 -1 85.26 6.9
 4 -13 -1 119.88 7.62
 3 -13 -1 257.82 11.04
 2 -13 -1 214.73 10.36
 1 -13 -1 439.89 14.17
 0 -13 -1 60.59 6.37
 -1 -13 -1 418.07 14.8
 -2 -13 -1 -2.43 9.5
 -3 -13 -1 333.01 14.45
 -4 -13 -1 9.51 10.68
 -5 -13 -1 58.32 7.39
 -6 -13 -1 5.69 11.99
 -7 -12 -1 9.78 12.61
 -6 -12 -1 36.54 12.35
 -5 -12 -1 53.23 6.75
 -4 -12 -1 75.83 8.04
 -3 -12 -1 300.8 12.87
 -2 -12 -1 610.21 17.7
 -1 -12 -1 81.65 6.99
 0 -12 -1 580.18 15.89
 1 -12 -1 0.86 7.35
 2 -12 -1 1409.98 23.77
 3 -12 -1 4.44 6.92
 4 -12 -1 159.45 8.38
 5 -12 -1 271.62 10.72
 6 -12 -1 693.04 17.1
 7 -12 -1 1091.88 21.96
 8 -12 -1 208.16 10.52
 9 -12 -1 365.85 14.22
 10 -12 -1 60.64 7.03
 11 -12 -1 360.11 15.08
 12 -12 -1 -2.53 11.43
 13 -12 -1 76.94 8.37
 14 -11 -1 44.11 6.74
 13 -11 -1 11.23 12.04
 12 -11 -1 159.8 10.65
 11 -11 -1 23.17 10.29
 10 -11 -1 302.04 13.23
 9 -11 -1 352.98 13.42
 8 -11 -1 30.05 4.85
 7 -11 -1 337.27 12.32
 6 -11 -1 171.92 8.69
 5 -11 -1 388.91 12.15
 4 -11 -1 81.31 6.12
 3 -11 -1 73.16 5.85
 2 -11 -1 93.23 6.59
 1 -11 -1 516.37 14.27
 0 -11 -1 604.02 15.39
 -1 -11 -1 130.18 7.99
 -2 -11 -1 398.6 13.34
 -3 -11 -1 136.78 8.68
 -4 -11 -1 447.1 15.66
 -5 -11 -1 4.08 9.49
 -6 -11 -1 82.59 8.18
 -7 -11 -1 1.44 11.28
 -8 -11 -1 11.27 12.63
 -8 -10 -1 61.98 8.07
 -7 -10 -1 29.35 11.3
 -6 -10 -1 39.27 6.13
 -5 -10 -1 57.76 6.37
 -4 -10 -1 58.74 6.27
 -3 -10 -1 680.82 17.3
 -2 -10 -1 60.8 5.76
 -1 -10 -1 1310.53 22.09
 0 -10 -1 17.6 7.17
 1 -10 -1 3393.7 33.1
 2 -10 -1 25.36 3.85
 3 -10 -1 619.77 13.98
 4 -10 -1 48.01 5.01
 5 -10 -1 94.62 6.14
 6 -10 -1 276.53 10.13
 7 -10 -1 46.08 4.97
 8 -10 -1 -0.01 7.45
 9 -10 -1 322.44 12.6
 10 -10 -1 777.46 19.77
 11 -10 -1 374.07 14.86
 12 -10 -1 159.68 10.84
 13 -10 -1 90.24 8.61
 14 -10 -1 46.48 7.03
 -14 9 1 21.23 12.74
 13 -9 -1 415.54 17.05
 12 -9 -1 2.96 10.09
 11 -9 -1 320.55 13.28
 10 -9 -1 21.57 8.98
 9 -9 -1 964.58 20.72
 8 -9 -1 1.15 6.9
 7 -9 -1 344.5 11.34
 6 -9 -1 330.78 10.73
 5 -9 -1 412.62 11.26
 4 -9 -1 2622.94 27.54
 3 -9 -1 58.47 5.05
 2 -9 -1 1296.72 18.79
 1 -9 -1 2.11 5.52
 0 -9 -1 3161.81 30.76
 -1 -9 -1 426.33 12.08
 -2 -9 -1 461.03 12.79
 -3 -9 -1 3.16 6.72
 -4 -9 -1 71.67 6.24
 -5 -9 -1 306.21 12.3
 -6 -9 -1 11.8 9.15
 -7 -9 -1 29.12 10.4
 -8 -9 -1 2.37 10.81
 -9 -9 -1 140.35 11.68
 -10 -8 -1 61.1 8.67
 -9 -8 -1 58.47 7.69
 -8 -8 -1 127.46 9.5
 -7 -8 -1 73.31 7.06
 -6 -8 -1 87.86 7.29
 -5 -8 -1 7.21 7.78
 -4 -8 -1 223.59 9.78
 -3 -8 -1 300.29 10.67
 -2 -8 -1 428.08 11.77
 -1 -8 -1 1080.6 17.55
 0 -8 -1 580.05 12.5
 1 -8 -1 4021.33 31.49
 2 -8 -1 15.25 2.89
 3 -8 -1 3414.18 28.9
 4 -8 -1 459.9 11.11
 5 -8 -1 2456.8 26.09
 6 -8 -1 4.4 5.66
 7 -8 -1 875.39 17.07
 8 -8 -1 18.61 7.15
 9 -8 -1 22.66 7.92
 10 -8 -1 431.64 14.49
 11 -8 -1 -0.66 8.73
 12 -8 -1 185.18 10.73
 -13 8 1 6.09 11.34
 -14 8 1 192.81 12.8
 -14 7 1 20.92 12.46
 -13 7 1 356.75 15.66
 -12 7 1 83.21 7.56
 11 -7 -1 46.46 5.73
 10 -7 -1 288.24 11.91
 9 -7 -1 899.36 19
 8 -7 -1 449.19 12.78
 7 -7 -1 264.31 9.51
 6 -7 -1 2065.37 23.93
 5 -7 -1 261.11 8.39
 4 -7 -1 5553 35.72
 3 -7 -1 5250.64 33.39
 2 -7 -1 2389.57 22.4
 1 -7 -1 1160.95 15.69
 0 -7 -1 1923.43 21.04
 -1 -7 -1 3296.06 28.65
 -2 -7 -1 34.39 3.92
 -3 -7 -1 134.18 7.02
 -4 -7 -1 20.1 3.65
 -5 -7 -1 998.25 20.1
 -6 -7 -1 387.64 13.41
 -7 -7 -1 48.61 6.07
 -8 -7 -1 171.79 10.55
 -9 -7 -1 127.89 10.13
 -10 -7 -1 198.32 13.02
 -11 -6 -1 64.59 8.4
 -10 -6 -1 -0.77 11.53
 -9 -6 -1 224.68 12.06
 -8 -6 -1 12.88 9.38
 -7 -6 -1 1333.32 25.43
 -6 -6 -1 21.99 8.29
 -5 -6 -1 1159.66 20.62
 -4 -6 -1 -1.67 5.94
 -3 -6 -1 201.83 7.78
 -2 -6 -1 126.95 6.1
 -1 -6 -1 39.1 3.74
 0 -6 -1 397.46 8.93
 1 -6 -1 72.26 4.17
 2 -6 -1 3394.73 24.69
 3 -6 -1 1237.79 15.43
 4 -6 -1 8332.82 40.89
 5 -6 -1 3913.92 29.77
 6 -6 -1 1155.95 17.34
 7 -6 -1 1574.57 21.45
 8 -6 -1 344.07 11.18
 9 -6 -1 1099.36 20.95
 10 -6 -1 50.09 5.56
 -11 6 1 139.07 8.85
 -12 6 1 35.77 5.32
 -13 6 1 242.74 12.79
 -14 6 1 48.3 7.06
 -14 5 1 54.69 7.31
 -13 5 1 43.23 6.82
 -12 5 1 352.96 14.4
 -11 5 1 47.97 5.68
 -10 5 1 21.42 7.88
 9 -5 -1 134.75 7.75
 8 -5 -1 273.84 9.82
 7 -5 -1 3596.16 32.24
 6 -5 -1 5.71 4.78
 5 -5 -1 2879.84 24.69
 4 -5 -1 268.33 7.41
 3 -5 -1 10871.61 41.67
 2 -5 -1 1405.77 14.82
 1 -5 -1 1080.96 12.97
 0 -5 -1 170.78 5.7
 -1 -5 -1 1508.14 16.72
 -2 -5 -1 614.72 11.46
 -3 -5 -1 75.11 4.99
 -4 -5 -1 699.77 14.28
 -5 -5 -1 299.02 10.71
 -6 -5 -1 1495.3 23.92
 -7 -5 -1 223.55 10.58
 -8 -5 -1 481.28 15.96
 -9 -5 -1 9.08 9.58
 -10 -5 -1 71.01 7.73
 -11 -5 -1 34.13 6.19
 -12 -4 -1 16.41 13.04
 -11 -4 -1 2.37 11.32
 -10 -4 -1 7.98 10.27
 -9 -4 -1 189.75 10.58
 -8 -4 -1 189.85 10.28
 -7 -4 -1 856.03 19.07
 -6 -4 -1 2.76 6.56
 -5 -4 -1 2696.76 28.76
 -4 -4 -1 213.49 7.83
 -3 -4 -1 2778.18 24.54
 -2 -4 -1 707.97 11.5
 -1 -4 -1 3681.01 23.67
 0 -4 -1 -2.05 3.36
 1 -4 -1 1696.52 14.6
 2 -4 -1 7251.78 30.04
 3 -4 -1 22.54 3.34
 4 -4 -1 8203.2 36.69
 5 -4 -1 57.07 4.12
 6 -4 -1 4426.21 32.29
 7 -4 -1 70.71 5.25
 8 -4 -1 1961.41 25.77
 -9 4 1 107.57 7.22
 -10 4 1 195.41 9.57
 -11 4 1 139.48 8.79
 -12 4 1 -0.09 9.65
 -13 4 1 191.18 11.83
 -14 4 1 6.34 12.22
 -14 3 1 45.35 6.94
 -13 3 1 -0.1 10.74
 -12 3 1 124.17 9.02
 -11 3 1 727.07 19.11
 -10 3 1 54.61 5.65
 -9 3 1 1075.88 20.25
 -8 3 1 139.96 7.36
 7 -3 -1 5883.58 39.83
 6 -3 -1 3362.25 27.74
 5 -3 -1 1279.79 15.69
 4 -3 -1 80.45 4.18
 3 -3 -1 7762.55 30.88
 2 -3 -1 2735.29 16.96
 1 -3 -1 1570.24 12.55
 0 -3 -1 18.62 3.07
 -1 -3 -1 1768.79 15.1
 -2 -3 -1 4626.53 26.76
 -3 -3 -1 4155.23 28.03
 -4 -3 -1 299.03 8.67
 -5 -3 -1 852.7 15.66
 -6 -3 -1 1007.64 18.11
 -7 -3 -1 1914.09 27.07
 -8 -3 -1 15.52 8.22
 -9 -3 -1 182.34 9.87
 -10 -3 -1 -1.01 9.57
 -11 -3 -1 82.04 8.2
 -12 -3 -1 51.27 7.43
 -12 -2 -1 19.45 12.24
 -11 -2 -1 20.96 11.06
 -10 -2 -1 4.02 9.27
 -9 -2 -1 140.11 8.75
 -8 -2 -1 663.6 16.95
 -7 -2 -1 26.05 4.72
 -6 -2 -1 924.71 17.04
 -5 -2 -1 4.36 4.94
 -4 -2 -1 4211.01 29.8
 -3 -2 -1 490.35 9.45
 -2 -2 -1 1874.01 15.89
 -1 -2 -1 484.84 7.6
 0 -2 -1 178.81 4.43
 1 -2 -1 1101.1 9.08
 2 -2 -1 6046.79 22.72
 3 -2 -1 41.1 3.76
 4 -2 -1 181.56 5.76
 5 -2 -1 926.92 13.1
 6 -2 -1 829.53 13.84
 -7 2 1 1640.06 21.49
 -8 2 1 1632.35 23.11
 -9 2 1 1019.47 19.62
 -10 2 1 902.72 20.09
 -11 2 1 168.57 9.94
 -12 2 1 160 10.02
 -13 2 1 1.03 10.86
 -14 2 1 60.54 8.07
 -14 1 1 9.59 12.9
 -13 1 1 5.4 11.17
 -12 1 1 20.29 10.28
 -11 1 1 397.47 14.6
 -10 1 1 928.93 20.64
 -9 1 1 3.68 7.03
 -8 1 1 1382.35 21.7
 -7 1 1 1408.04 20.04
 -6 1 1 4371.9 31.87
 5 -1 -1 139.5 5.52
 4 -1 -1 105.47 4.67
 3 -1 -1 547.78 8.33
 2 -1 -1 105.35 3.69
 0 -1 -1 70.44 2.4
 -1 -1 -1 92.02 3.57
 -2 -1 -1 192.87 5.61
 -3 -1 -1 11745.81 42.15
 -4 -1 -1 1253.6 15.86
 -5 -1 -1 1521.54 19.4
 -6 -1 -1 2.33 5.13
 -7 -1 -1 150.53 7.58
 -8 -1 -1 368.45 12.36
 -9 -1 -1 4.92 7.91
 -10 -1 -1 41.98 5.53
 -11 -1 -1 4.44 9.94
 -12 -1 -1 198.01 12.01
 -13 0 -1 109.92 9.94
 -12 0 -1 12.13 11.4
 -11 0 -1 59.24 6.91
 -10 0 -1 250.96 11.94
 -9 0 -1 501.52 15.07
 -8 0 -1 5.63 6.77
 -7 0 -1 2.3 5.86
 -6 0 -1 242.58 8.42
 -5 0 -1 2216.53 22.57
 -4 0 -1 9222.35 40.5
 -3 0 -1 3502.27 22.01
 -2 0 -1 10650.93 85.78
 -1 0 -1 12.49 1.99
 2 0 -1 3153.47 15.45
 3 0 -1 2.74 3.6
 4 0 -1 2729.18 20.4
 -5 0 1 4260.68 28.73
 -6 0 1 37.28 3.85
 -7 0 1 1844.05 23.4
 -8 0 1 63.7 5.77
 -9 0 1 1083.34 21.11
 -10 0 1 82.59 7.27
 -11 0 1 527.85 17.19
 -12 0 1 9.07 10.37
 -13 0 1 81.98 8.33
 -13 -1 1 18.07 12.39
 -12 -1 1 242.71 12.8
 -11 -1 1 4.47 9.44
 -10 -1 1 1127.53 23.42
 -9 -1 1 282.97 11.12
 -8 -1 1 248.61 9.88
 -7 -1 1 30.69 4.18
 -6 -1 1 1331 18.35
 -5 -1 1 516.34 10.49
 -4 -1 1 1018.83 13.16
 3 1 -1 1957.64 15.7
 2 1 -1 329.9 6
 -1 1 -1 16015.12 82.3
 -2 1 -1 31.83 3.39
 -3 1 -1 2561.18 18.4
 -4 1 -1 3705.13 25.15
 -5 1 -1 36.64 3.75
 -6 1 -1 1541.38 20.02
 -7 1 -1 30.06 4.16
 -8 1 -1 461.9 13.31
 -9 1 -1 378.94 13.21
 -10 1 -1 52.67 6.11
 -11 1 -1 204.97 11.3
 -12 1 -1 91.95 8.75
 -13 1 -1 42.35 7.05
 -13 2 -1 37.46 12.94
 -12 2 -1 262.54 13.26
 -11 2 -1 6.77 9.68
 -10 2 -1 1061.64 22.72
 -9 2 -1 377.97 13.13
 -8 2 -1 277.16 10.54
 -7 2 -1 308.74 9.99
 -6 2 -1 2239.04 24.06
 -5 2 -1 1314.86 16.83
 -4 2 -1 645.01 10.59
 -3 2 -1 327.13 7.01
 -2 2 -1 2071.09 14.3
 -1 2 -1 7799.22 61.3
 0 2 -1 4094.68 15.72
 1 2 -1 13622.95 84.03
 2 2 -1 2788.08 17.22
 -3 -2 1 1576.03 14.87
 -4 -2 1 2776.53 22.1
 -5 -2 1 139.95 6.06
 -6 -2 1 1196.23 17.85
 -7 -2 1 229.18 8.92
 -8 -2 1 664.13 16.03
 -9 -2 1 277.92 11.28
 -10 -2 1 87.06 7.75
 -11 -2 1 100.53 8.62
 -12 -2 1 232.01 12.78
 -13 -2 1 42.08 6.75
 -13 -3 1 63.18 8.23
 -12 -3 1 7.29 11.67
 -11 -3 1 156.71 9.97
 -10 -3 1 169.46 10.05
 -9 -3 1 562.04 16.23
 -8 -3 1 15.56 7.26
 -7 -3 1 103.03 6.41
 -6 -3 1 383.07 10.64
 -5 -3 1 2363.33 23.82
 -4 -3 1 3838.23 27.49
 -3 -3 1 2647.5 20.52
 -2 -3 1 1901.93 15.8
 -1 -3 1 1728.44 13.27
 0 3 -1 18739.35 104.27
 -1 3 -1 1029.22 9.85
 -2 3 -1 2652.28 17.02
 -3 3 -1 334.6 7.14
 -4 3 -1 3317.94 23.75
 -5 3 -1 1147.51 15.51
 -6 3 -1 136.13 6.49
 -7 3 -1 1356.29 20.25
 -8 3 -1 85.47 6.42
 -9 3 -1 1029.4 20.88
 -10 3 -1 12.52 8.29
 -11 3 -1 693.85 19.99
 -12 3 -1 6.75 10.65
 -13 3 -1 96.08 9.73
 -13 4 -1 4.37 11.65
 -12 4 -1 24.92 10.94
 -11 4 -1 202.72 11.06
 -10 4 -1 644.41 17.83
 -9 4 -1 7.14 7.36
 -8 4 -1 1411.88 22.34
 -7 4 -1 318.51 10.28
 -6 4 -1 4297.5 33.28
 -5 4 -1 13.76 2.7
 -4 4 -1 1014.72 13.64
 -3 4 -1 29.09 3.29
 -2 4 -1 7224.91 29.63
 -1 4 -1 5297.31 24.09
 0 -4 1 528.95 7.98
 -1 -4 1 35.92 3.73
 -2 -4 1 430.2 8.39
 -3 -4 1 7436.37 36.76
 -4 -4 1 93.3 5.38
 -5 -4 1 1324.96 18.53
 -6 -4 1 0.94 5.62
 -7 -4 1 124.24 7.39
 -8 -4 1 566.7 15.39
 -9 -4 1 5.13 8.43
 -10 -4 1 124.36 9.02
 -11 -4 1 -1.36 10.7
 -12 -4 1 257.28 14.19
 -12 -5 1 5.77 12.69
 -11 -5 1 37.57 6.26
 -10 -5 1 1.85 9.74
 -9 -5 1 148.92 9.43
 -8 -5 1 347.93 12.86
 -7 -5 1 54.15 5.66
 -6 -5 1 822.87 16.76
 -5 -5 1 66.34 5.21
 -4 -5 1 4080.25 31.68
 -3 -5 1 1662.52 18.98
 -2 -5 1 3795.06 26.04
 -1 -5 1 507.45 9.11
 0 -5 1 1545.51 14.73
 1 -5 1 2490.39 18.37
 2 -5 1 24.26 3.09
 3 -5 1 1112.63 13.63
 -4 5 -1 50.79 3.71
 -5 5 -1 425.2 9.94
 -6 5 -1 204.06 7.69
 -7 5 -1 1305.89 19.99
 -8 5 -1 693.33 16.09
 -9 5 -1 811.42 18.33
 -10 5 -1 224.63 10.7
 -11 5 -1 76.61 7.37
 -12 5 -1 67.9 7.24
 -13 5 -1 -0.42 11.34
 -14 6 -1 30.58 13.61
 -13 6 -1 4.89 11.41
 -12 6 -1 36.26 5.59
 -11 6 -1 449.71 16.06
 -10 6 -1 5.9 8.45
 -9 6 -1 550.54 15.44
 -8 6 -1 116.22 7.53
 -7 6 -1 1916.79 24.79
 -6 6 -1 1423.67 19.64
 5 -6 1 55.15 4.07
 4 -6 1 952.52 13.97
 3 -6 1 618.69 10.71
 2 -6 1 1400.99 15.56
 1 -6 1 339.02 7.72
 0 -6 1 8.26 3.66
 -1 -6 1 619.22 10.81
 -2 -6 1 2597.01 23.34
 -3 -6 1 4309.59 32.17
 -4 -6 1 320.42 9.8
 -5 -6 1 940.87 17.37
 -6 -6 1 417.82 12.8
 -7 -6 1 1531.73 25.31
 -8 -6 1 0.45 8.45
 -9 -6 1 151.53 9.65
 -10 -6 1 -1.23 10.27
 -11 -6 1 68.56 8.12
 -11 -7 1 -0.16 12.44
 -10 -7 1 34.17 5.86
 -9 -7 1 182.61 10.89
 -8 -7 1 313.21 13.24
 -7 -7 1 772.73 19.5
 -6 -7 1 192.71 9.53
 -5 -7 1 1590.58 23.87
 -4 -7 1 765.74 15.44
 -3 -7 1 1337.65 19.3
 -2 -7 1 -0.16 4.67
 -1 -7 1 1698.85 19.32
 0 -7 1 33.7 3.36
 1 -7 1 3.81 3.83
 2 -7 1 2071.99 20.35
 3 -7 1 463.55 9.96
 4 -7 1 3106.9 26.61
 5 -7 1 105.9 5.55
 6 -7 1 2093.37 24.47
 7 -7 1 18.63 6.54
 8 -7 1 1025.21 19.74
 -9 7 -1 73.07 6.46
 -10 7 -1 166.74 9.35
 -11 7 -1 107.46 8.43
 -12 7 -1 8.91 10.37
 -13 7 -1 83.15 8.6
 -14 7 -1 5.43 12.59
 -13 8 -1 34.73 6.13
 -12 8 -1 156.18 10.48
 11 -8 1 4.38 9.33
 10 -8 1 15.43 8.6
 9 -8 1 27.81 4.23
 8 -8 1 116.41 7.43
 7 -8 1 1086.45 19.41
 6 -8 1 -0.97 5.75
 5 -8 1 1370.61 19.38
 4 -8 1 71.56 4.91
 3 -8 1 3452.79 28.64
 2 -8 1 148.1 6.28
 1 -8 1 1775.39 20.14
 0 -8 1 24.88 3.35
 -1 -8 1 2057.8 22.73
 -2 -8 1 497.11 11.83
 -3 -8 1 4.75 5.74
 -4 -8 1 331.86 11.18
 -5 -8 1 119.62 7.64
 -6 -8 1 707.25 17.83
 -7 -8 1 312.72 13.01
 -8 -8 1 307.07 13.28
 -9 -8 1 -0.09 10.49
 -10 -8 1 52.6 7.74
 -11 -8 1 52.89 8.14
 -10 -9 1 13.84 12.5
 -9 -9 1 108.71 9.5
 -8 -9 1 -2.44 9.82
 -7 -9 1 516.24 16.82
 -6 -9 1 -0.95 8.6
 -5 -9 1 276.05 11.33
 -4 -9 1 16.38 7.27
 -3 -9 1 -5.42 6.41
 -2 -9 1 54.29 5.22
 -1 -9 1 126.76 6.6
 0 -9 1 598.48 12.81
 1 -9 1 147.45 6.6
 2 -9 1 2371.09 24.91
 3 -9 1 607.49 12.79
 4 -9 1 3755.09 32.48
 5 -9 1 955.68 17.01
 6 -9 1 918.27 17.53
 7 -9 1 521.83 14.13
 8 -9 1 283.56 11.09
 9 -9 1 248.45 10.96
 10 -9 1 3.36 8.45
 11 -9 1 42.08 5.44
 12 -9 1 29.17 11.41
 13 -9 1 85.07 8.96
 13 -10 1 218.35 13.08
 12 -10 1 50.33 6.6
 11 -10 1 46.51 5.84
 10 -10 1 200.88 10.48
 9 -10 1 484.12 15.29
 8 -10 1 185.9 9.48
 7 -10 1 44.69 5.25
 6 -10 1 605.04 14.75
 5 -10 1 379.45 11.44
 4 -10 1 2075.73 25.7
 3 -10 1 2742.52 28.99
 2 -10 1 913.08 16.36
 1 -10 1 1312.5 19.61
 0 -10 1 361.44 10.82
 -1 -10 1 930.98 17.4
 -2 -10 1 16.94 6.83
 -3 -10 1 34.11 4.66
 -4 -10 1 19.72 7.67
 -5 -10 1 500.46 15.55
 -6 -10 1 246.42 11.68
 -7 -10 1 30.46 5.37
 -8 -10 1 86.65 8.35
 -9 -10 1 26.81 12.63
 -9 -11 1 33.42 13.8
 -8 -11 1 75.23 8.37
 -7 -11 1 18.63 11.01
 -6 -11 1 14.06 9.9
 -5 -11 1 -2.54 8.77
 -4 -11 1 256.96 11.22
 -3 -11 1 387.63 12.96
 -2 -11 1 102.25 7.15
 -1 -11 1 1054.05 19.79
 0 -11 1 461.54 13
 1 -11 1 1722.11 24.08
 2 -11 1 142.7 7.4
 3 -11 1 1466.12 22.1
 4 -11 1 333.85 11.16
 5 -11 1 462 12.99
 6 -11 1 72.34 6.01
 7 -11 1 84.53 6.48
 8 -11 1 93.55 7.25
 9 -11 1 -1.3 8.82
 10 -11 1 532.45 17.65
 11 -11 1 3.29 9.95
 12 -11 1 154.86 10.51
 13 -11 1 4.72 12.77
 13 -12 1 122.27 10.48
 12 -12 1 -4.9 11.86
 11 -12 1 180.43 11.23
 10 -12 1 0.96 9.81
 9 -12 1 519.02 16.73
 8 -12 1 29.22 4.75
 7 -12 1 452.27 14.26
 6 -12 1 201.08 9.74
 5 -12 1 379.31 12.48
 4 -12 1 1113.77 20.71
 3 -12 1 36.77 5
 2 -12 1 591.07 15.05
 1 -12 1 2.38 7.06
 0 -12 1 1150.65 21.35
 -1 -12 1 111.14 7.86
 -2 -12 1 704.93 17.79
 -3 -12 1 11.31 8.29
 -4 -12 1 53.92 6.03
 -5 -12 1 79.07 7.56
 -6 -12 1 1.15 10.25
 -7 -12 1 23.51 11.81
 -8 -12 1 -0.79 12.51
 -7 -13 1 11.42 12.06
 -6 -13 1 3.1 11.36
 -5 -13 1 17.19 10.64
 -4 -13 1 38.95 5.57
 -3 -13 1 313.65 13.38
 -2 -13 1 2.55 8.29
 -1 -13 1 897.36 20.3
 0 -13 1 9.05 8.01
 1 -13 1 1507.19 25.52
 2 -13 1 17.23 7.63
 3 -13 1 252.15 10.52
 4 -13 1 76.04 6.47
 5 -13 1 130.47 8.15
 6 -13 1 268.13 11.5
 7 -13 1 -0.57 8.24
 8 -13 1 59.51 6.23
 9 -13 1 89.18 7.94
 10 -13 1 481.64 17.29
 11 -13 1 69.68 7.97
 12 -13 1 85.55 8.75
 12 -14 1 74.31 8.46
 11 -14 1 35.34 12.35
 10 -14 1 157.62 10.81
 9 -14 1 40.3 6.31
 8 -14 1 8.11 9.24
 7 -14 1 90.7 7.45
 6 -14 1 4.97 8.34
 5 -14 1 21.61 8.41
 4 -14 1 10.96 8.12
 3 -14 1 47.01 5.51
 2 -14 1 277.42 11.77
 1 -14 1 445.39 14.91
 0 -14 1 597.39 17.37
 -1 -14 1 159.56 10.02
 -2 -14 1 318.39 13.45
 -3 -14 1 54.66 6.96
 -4 -14 1 143.96 10.12
 -5 -14 1 -3.16 11.37
 -6 -14 1 32.19 5.98
 -5 -15 1 53.96 7.59
 -4 -15 1 65.27 7.9
 -3 -15 1 197.41 11.96
 -2 -15 1 258.44 12.98
 -1 -15 1 196.02 11.31
 0 -15 1 186.32 11.43
 1 -15 1 127.26 9.06
 2 -15 1 420.31 14.65
 3 -15 1 5.27 8.6
 4 -15 1 8.6 8.57
 5 -15 1 46.66 5.62
 6 -15 1 160.34 9.88
 7 -15 1 230.69 12.06
 8 -15 1 98.02 8.39
 9 -15 1 86.05 8.27
 10 -15 1 40.18 6.89
 11 -15 1 64.03 7.79
 12 -15 1 -0.45 12.64
 11 -16 1 1.28 12.48
 10 -16 1 115.5 9.97
 9 -16 1 -1.23 11.16
 8 -16 1 371.41 15.68
 7 -16 1 3.63 10.14
 6 -16 1 245.31 12.21
 5 -16 1 1.86 9.3
 4 -16 1 40.47 5.8
 3 -16 1 72.72 7.26
 2 -16 1 7.23 9.7
 1 -16 1 94.09 8.14
 0 -16 1 4.4 9.7
 -1 -16 1 167.23 10.78
 -2 -16 1 11.92 11.29
 -3 -16 1 183.59 11.93
 -4 -16 1 20.65 12.78
 -3 -17 1 -1.29 12.89
 -2 -17 1 70.18 8.47
 -1 -17 1 0.28 11.22
 0 -17 1 3.08 10.69
 1 -17 1 20.55 10.8
 2 -17 1 1.73 10.15
 3 -17 1 137.41 9.92
 4 -17 1 10.61 10.54
 5 -17 1 197.44 11.72
 6 -17 1 4.97 10.45
 7 -17 1 150.97 10.91
 8 -17 1 59.22 7.65
 9 -17 1 164.21 11.8
 10 -17 1 7.73 12.36
 9 -18 1 36.54 13.52
 8 -18 1 16.71 12.44
 7 -18 1 15.15 12
 6 -18 1 84.4 8.35
 5 -18 1 17 11.87
 4 -18 1 49.34 6.58
 3 -18 1 5.13 10.98
 2 -18 1 35.09 12.22
 1 -18 1 1.39 11.18
 0 -18 1 -0.6 11.7
 -1 -18 1 18.28 12.5
 -2 -18 1 0 12.67
 0 -19 1 -8.06 13.03
 1 -19 1 -1.4 12.57
 2 -19 1 10.08 12.5
 3 -19 1 29.11 12.9
 4 -19 1 23.49 12.71
 5 -19 1 16.15 12.76
 6 -19 1 34.54 12.78
 7 -19 1 7.24 12.32
 8 -19 1 37.14 6.36
 3 -20 2 32.37 13.76
 4 -20 2 -0.64 12.9
 5 -20 2 69.86 8.81
 8 -19 2 50.31 7.79
 7 -19 2 2.39 12.49
 6 -19 2 16.53 12.58
 5 -19 2 7.98 12.21
 4 -19 2 8.2 12.52
 3 -19 2 33.84 6.34
 2 -19 2 21.53 12.56
 1 -19 2 0.22 12.11
 0 -19 2 -3.39 12.55
 -2 -18 2 6.04 12.75
 -1 -18 2 19.14 12.35
 0 -18 2 4.03 11.45
 1 -18 2 -0.04 11.35
 2 -18 2 97.36 8.97
 3 -18 2 -1.78 10.81
 4 -18 2 27.57 11.41
 5 -18 2 32.93 11.96
 6 -18 2 55.04 7.14
 7 -18 2 51.83 7.5
 8 -18 2 35.03 12.88
 9 -18 2 31.4 13.6
 10 -17 2 5.72 12.78
 9 -17 2 97.49 9.52
 8 -17 2 23.61 11.98
 7 -17 2 240.17 13.33
 6 -17 2 13.91 11.05
 5 -17 2 154.3 10.68
 4 -17 2 3.49 10.06
 3 -17 2 57.92 7.04
 2 -17 2 34.01 6.11
 1 -17 2 38.26 6.09
 0 -17 2 46.98 7.08
 -1 -17 2 7.94 11.45
 -2 -17 2 175.93 11.99
 -3 -17 2 -0.73 12.71
 -4 -17 2 76.31 9.04
 -5 -16 2 32.67 13.86
 -4 -16 2 24.81 12.68
 -3 -16 2 142.52 11.02
 -2 -16 2 6.77 10.89
 -1 -16 2 251.68 12.99
 0 -16 2 -3.86 10.19
 1 -16 2 312.07 13.6
 2 -16 2 -3.34 9.51
 3 -16 2 36.32 5.48
 4 -16 2 4.06 9.28
 5 -16 2 10.52 9.66
 6 -16 2 132.25 9.33
 7 -16 2 -1.39 10.28
 8 -16 2 103.27 8.57
 9 -16 2 -2.5 11.47
 10 -16 2 104.13 10.21
 11 -16 2 1.93 13.08
 11 -15 2 69.23 8.25
 10 -15 2 -2.78 11.63
 9 -15 2 64.01 7.59
 8 -15 2 6.51 9.95
 7 -15 2 79.33 7.75
 6 -15 2 8.71 9.4
 5 -15 2 7.28 8.72
 4 -15 2 71.87 6.61
 3 -15 2 0.04 8.48
 2 -15 2 358.94 13.72
 1 -15 2 83.33 7.7
 0 -15 2 407.98 15.37
 -1 -15 2 45.8 6.39
 -2 -15 2 314.35 13.87
 -3 -15 2 36.55 5.8
 -4 -15 2 7.01 11.27
 -5 -15 2 23.31 12.33
 -6 -15 2 4.94 12.63
 -7 -14 2 2.88 12.5
 -6 -14 2 5.66 11.61
 -5 -14 2 3.09 10.62
 -4 -14 2 46.87 6.85
 -3 -14 2 84.97 7.8
 -2 -14 2 40.37 5.6
 -1 -14 2 199.44 10.73
 0 -14 2 204.3 10.45
 1 -14 2 409.07 14.42
 2 -14 2 118.21 7.96
 3 -14 2 175.25 9.19
 4 -14 2 9.05 8.1
 5 -14 2 160.08 9.28
 6 -14 2 58.52 6.58
 7 -14 2 20.31 9.41
 8 -14 2 20.57 9.82
 9 -14 2 -0.54 10.05
 10 -14 2 252.17 13.51
 11 -14 2 9.23 11.83
 12 -14 2 49.99 7.05
 12 -13 2 35.22 13.3
 11 -13 2 16.33 11.71
 10 -13 2 209.06 12
 9 -13 2 119.57 8.88
 8 -13 2 45.23 5.58
 7 -13 2 3.68 8.19
 6 -13 2 390.95 13.75
 5 -13 2 180.65 9.31
 4 -13 2 619.76 16.24
 3 -13 2 268.26 10.89
 2 -13 2 315.09 11.85
 1 -13 2 385.48 13
 0 -13 2 3.2 7.6
 -1 -13 2 349.87 12.84
 -2 -13 2 4.65 8.12
 -3 -13 2 61.03 6.23
 -4 -13 2 46.66 5.94
 -5 -13 2 25.11 10.73
 -6 -13 2 85.3 8.31
 -7 -13 2 2.61 11.71
 -8 -13 2 66.35 8.52
 -8 -12 2 3.02 11.91
 -7 -12 2 135.65 10.38
 -6 -12 2 22.99 10.5
 -5 -12 2 135.87 9.24
 -4 -12 2 16.54 8.64
 -3 -12 2 1.43 7.62
 -2 -12 2 55.67 5.57
 -1 -12 2 83.93 6.8
 0 -12 2 986.37 19.66
 1 -12 2 22.08 4.34
 2 -12 2 1095.13 20.31
 3 -12 2 153.53 8.16
 4 -12 2 1339.75 23.07
 5 -12 2 158.92 8.63
 6 -12 2 69.32 6.09
 7 -12 2 120.82 7.83
 8 -12 2 26.22 9.05
 9 -12 2 196 10.73
 10 -12 2 0.69 9.97
 11 -12 2 45.64 6.21
 -12 12 -2 7.68 11.83
 -13 11 -2 3.46 12.97
 -12 11 -2 63.63 7.58
 -11 11 -2 -0.75 10.41
 -10 11 -2 115.76 9.13
 -9 11 -2 -0.78 8.82
 8 -11 2 1.54 8.01
 7 -11 2 145.38 8.36
 6 -11 2 0.62 6.73
 5 -11 2 338.09 11.33
 4 -11 2 150.56 7.97
 3 -11 2 1184.45 20.39
 2 -11 2 169.12 7.95
 1 -11 2 1095.06 19.11
 0 -11 2 114.23 6.84
 -1 -11 2 264.19 10.2
 -2 -11 2 52.06 5.25
 -3 -11 2 22.69 7.65
 -4 -11 2 173.64 9.24
 -5 -11 2 0.57 8.43
 -6 -11 2 197.82 10.99
 -7 -11 2 78.99 8.32
 -8 -11 2 174.36 11.42
 -9 -11 2 18.2 12.72
 -10 -10 2 82.54 9.08
 -9 -10 2 74.32 8.79
 -8 -10 2 110.5 9.12
 -7 -10 2 166.89 10.44
 -6 -10 2 338.26 13.64
 -5 -10 2 661.75 17.9
 -4 -10 2 269.99 11.09
 -3 -10 2 54.09 5.45
 -2 -10 2 43.02 4.95
 -1 -10 2 1033.79 18.2
 0 -10 2 38.02 4.16
 1 -10 2 8.8 5.36
 2 -10 2 408.84 11.27
 3 -10 2 624.16 13.92
 4 -10 2 1338.01 20.71
 5 -10 2 353.56 11.13
 6 -10 2 558.96 14.62
 -7 10 -2 349.62 12.2
 -8 10 -2 406.63 13.98
 -9 10 -2 9.88 8.41
 -10 10 -2 26.44 9.85
 -11 10 -2 19.11 10.51
 -12 10 -2 -0.29 11.49
 -13 10 -2 89.77 9.41
 -13 9 -2 5.21 12.22
 -12 9 -2 12.33 10.97
 -11 9 -2 19.02 10.37
 -10 9 -2 -1.75 9.2
 -9 9 -2 187.96 9.95
 -8 9 -2 275.59 11.25
 -7 9 -2 595.55 15.39
 -6 9 -2 1513.14 22.91
 -5 9 -2 569.42 13.54
 -4 9 -2 1374.62 19.87
 3 -9 2 296.65 9.21
 2 -9 2 829.82 14.72
 1 -9 2 14.11 4.98
 0 -9 2 171.28 7.11
 -1 -9 2 322.29 9.75
 -2 -9 2 978.92 17.42
 -3 -9 2 1170.05 19.77
 -4 -9 2 46.22 5.16
 -5 -9 2 727.11 17.53
 -6 -9 2 3.18 8.01
 -7 -9 2 813.52 20.77
 -8 -9 2 8.78 10.04
 -9 -9 2 72.61 8.09
 -10 -9 2 0.57 11.85
 -11 -8 2 36.36 13.53
 -10 -8 2 73.95 7.69
 -9 -8 2 0.76 9.98
 -8 -8 2 601.59 18.5
 -7 -8 2 183.72 10.43
 -6 -8 2 1611.44 26.4
 -5 -8 2 0.44 6.94
 -4 -8 2 2737.28 30.38
 -3 -8 2 -0.64 5.95
 -2 -8 2 2066.72 23.82
 -1 -8 2 514.56 11.33
 0 -8 2 13.75 4.58
 1 -8 2 53.25 3.92
 -2 8 -2 91.06 5.07
 -3 8 -2 2296.75 23.94
 -4 8 -2 0.58 4.78
 -5 8 -2 1637.1 22.23
 -6 8 -2 6.12 6.48
 -7 8 -2 2039.49 27.84
 -8 8 -2 382.58 13
 -9 8 -2 259.57 11.33
 -10 8 -2 18.39 9.07
 -11 8 -2 41.21 5.93
 -12 8 -2 19.4 11.59
 -13 8 -2 1.28 11.9
 -13 7 -2 11.66 12.08
 -12 7 -2 35.11 5.86
 -11 7 -2 37.93 6.2
 -10 7 -2 343 13.75
 -9 7 -2 1.13 7.68
 -8 7 -2 1317.65 23.11
 -7 7 -2 77.55 6.4
 -6 7 -2 2195.63 26.19
 -5 7 -2 354.23 10.03
 -4 7 -2 705.69 13.19
 -3 7 -2 44.2 3.79
 -2 7 -2 920.91 13.75
 -1 7 -2 711.93 12.01
 0 7 -2 54.73 4.1
 -1 -7 2 704.77 12.33
 -2 -7 2 88.51 5.1
 -3 -7 2 4702.47 35.49
 -4 -7 2 364.11 11
 -5 -7 2 2455.42 29.17
 -6 -7 2 160.73 8.68
 -7 -7 2 812.35 19.18
 -8 -7 2 601.96 17.6
 -9 -7 2 22.66 10.06
 -10 -7 2 11.96 10.89
 -11 -7 2 3.23 11.68
 -12 -6 2 31.02 13.33
 -11 -6 2 37 12.42
 -10 -6 2 12.87 10.23
 -9 -6 2 42.89 6.15
 -8 -6 2 49.41 5.99
 -7 -6 2 324.11 11.78
 -6 -6 2 847.3 17.64
 -5 -6 2 737.83 15.2
 -4 -6 2 2486.91 26.14
 -3 -6 2 2730.12 25.73
 -2 -6 2 2574.24 23.25
 1 6 -2 3539.23 25.79
 0 6 -2 2328.01 20.35
 -1 6 -2 2895.84 22.37
 -2 6 -2 2201.59 20.06
 -3 6 -2 198.46 6.59
 -4 6 -2 301.28 8.36
 -5 6 -2 291.86 8.76
 -6 6 -2 159.75 7.42
 -7 6 -2 1614.9 23.19
 -8 6 -2 35.07 4.89
 -9 6 -2 484.84 14.78
 -10 6 -2 66.02 6.73
 -11 6 -2 533.34 17.89
 -12 6 -2 3.26 10.77
 -13 6 -2 13.27 12.44
 -13 5 -2 12.12 12.12
 -12 5 -2 123.23 9.84
 -11 5 -2 59.63 7.02
 -10 5 -2 471.82 15.73
 -9 5 -2 1022.88 21.57
 -8 5 -2 219.84 9.72
 -7 5 -2 898.67 17.26
 -6 5 -2 2410.56 26.56
 -5 5 -2 1084.59 16.37
 -4 5 -2 2.75 3.96
 -3 5 -2 2284.61 20.38
 -2 5 -2 132.89 5.1
 -1 5 -2 3259.48 22.03
 0 5 -2 956.14 12.24
 1 5 -2 801.94 11.41
 2 5 -2 1146.53 14.38
 -3 -5 2 1432.3 17.41
 -4 -5 2 3654.35 29.82
 -5 -5 2 26.71 3.76
 -6 -5 2 429.21 12.33
 -7 -5 2 144.12 8.1
 -8 -5 2 334.92 12.3
 -9 -5 2 219.64 10.86
 -10 -5 2 -4.03 9.83
 -11 -5 2 56.11 6.81
 -12 -5 2 54.04 7.44
 -13 -4 2 -1.09 12.82
 -12 -4 2 266.05 14.26
 -11 -4 2 1.6 10.09
 -10 -4 2 530.71 17
 -9 -4 2 11.05 8.23
 -8 -4 2 185.12 9.1
 -7 -4 2 377.96 11.73
 -6 -4 2 2.97 5.73
 -5 -4 2 561.87 12.1
 4 4 -2 -2.63 4.59
 3 4 -2 6325.06 33.91
 2 4 -2 857.16 11.64
 1 4 -2 3040 20.19
 0 4 -2 18605.02 126.15
 -1 4 -2 9423.43 34.61
 -2 4 -2 2966.6 20.68
 -3 4 -2 494.41 9.27
 -4 4 -2 1245.54 15.84
 -5 4 -2 33.25 3.57
 -6 4 -2 2347.7 25.73
 -7 4 -2 76.17 5.83
 -8 4 -2 694.71 16.48
 -9 4 -2 35.82 5.57
 -10 4 -2 500.25 16.28
 -11 4 -2 281.55 13.33
 -12 4 -2 75.81 8.13
 -13 4 -2 7.54 12.45
 -13 3 -2 162.08 11.64
 -12 3 -2 -7.57 11.33
 -11 3 -2 276.35 13.05
 -10 3 -2 146.08 9.25
 -9 3 -2 1052.62 21.77
 -8 3 -2 27.23 4.58
 -7 3 -2 264.95 9.7
 -6 3 -2 80.16 5.47
 -5 3 -2 907.43 14.73
 -4 3 -2 2834.23 23.61
 -3 3 -2 285.69 7.11
 -2 3 -2 2743.34 19.06
 -1 3 -2 2273.46 16.08
 0 3 -2 38193 166.13
 1 3 -2 3078.94 18.62
 2 3 -2 7429.32 31.09
 3 3 -2 851.24 11.8
 4 3 -2 3683.68 26.79
 5 3 -2 2761.29 25.57
 -6 -3 2 225.46 8.24
 -7 -3 2 95.54 6.26
 -8 -3 2 112.96 7.21
 -9 -3 2 745.09 18.41
 -10 -3 2 277.58 12.72
 -11 -3 2 267.84 12.74
 -12 -3 2 5.57 11.08
 -13 -3 2 124.2 10.56
 -13 -2 2 38.19 12.92
 -12 -2 2 139.33 9.85
 -11 -2 2 313.47 13.77
 -10 -2 2 383.44 13.98
 -9 -2 2 19.36 7.96
 -8 -2 2 770.05 16.89
 -7 -2 2 160.68 7.47
 6 2 -2 2528.63 25.78
 5 2 -2 32.88 3.72
 4 2 -2 1225.66 14.9
 3 2 -2 1617.22 15.41
 2 2 -2 2085.13 15.67
 1 2 -2 16.13 2.72
 0 2 -2 5801.12 22.64
 -1 2 -2 48.68 3.47
 -2 2 -2 125.34 4.7
 -3 2 -2 2033.92 17.81
 -4 2 -2 128.72 5.42
 -5 2 -2 1076.19 15.92
 -6 2 -2 126.45 6.48
 -7 2 -2 249.44 9.58
 -8 2 -2 193.12 9.28
 -9 2 -2 14.17 8.27
 -10 2 -2 438.88 15.44
 -11 2 -2 -0.36 9.88
 -12 2 -2 180.21 11.79
 -13 2 -2 9.75 12.62
 -13 1 -2 87.41 9.75
 -12 1 -2 42.18 6.77
 -11 1 -2 55.22 6.54
 -10 1 -2 2.77 8.87
 -9 1 -2 385.47 13.54
 -8 1 -2 71.59 6.27
 -7 1 -2 16.01 6.56
 -6 1 -2 44.72 4.56
 -5 1 -2 103.7 5.5
 -4 1 -2 3782.26 27.63
 -3 1 -2 5505.19 29.74
 -2 1 -2 341.21 7.11
 -1 1 -2 3563.51 18.76
 0 1 -2 2993.92 15.69
 1 1 -2 10085.24 75.73
 2 1 -2 201.15 5.33
 3 1 -2 338.89 7.05
 4 1 -2 589.61 9.95
 5 1 -2 391.75 9.11
 6 1 -2 3183.39 28.18
 7 1 -2 83.92 5.78
 -8 -1 2 605.76 14.65
 -9 -1 2 622.76 15.96
 -10 -1 2 1226.64 24.05
 -11 -1 2 6.97 9.42
 -12 -1 2 183.98 10.96
 -13 -1 2 -5.92 11.78
 -14 0 2 62.72 7.95
 -13 0 2 8.06 11.32
 -12 0 2 52.32 6.23
 -11 0 2 821.18 20.79
 -10 0 2 2.21 8.07
 -9 0 2 1134.15 21.15
 8 0 -2 44.99 5.13
 7 0 -2 3495.23 31.59
 6 0 -2 420.17 10.13
 5 0 -2 405.55 9.14
 4 0 -2 248.1 6.65
 3 0 -2 2449.28 17.42
 2 0 -2 5293.41 22.44
 1 0 -2 568.29 7.28
 0 0 -2 15683.39 95.93
 -1 0 -2 2542.6 16.35
 -2 0 -2 8670.53 34.07
 -3 0 -2 2764.07 21.78
 -4 0 -2 5898.59 35.27
 -5 0 -2 1505.97 19.87
 -6 0 -2 711.16 15.01
 -7 0 -2 554.37 14.3
 -8 0 -2 3.88 7.54
 -9 0 -2 276.9 11.99
 -10 0 -2 3.23 9.23
 -11 0 -2 57.81 6.92
 -12 0 -2 25.29 12.54
 -12 -1 -2 51.48 7.91
 -11 -1 -2 5.41 10.59
 -10 -1 -2 4.62 9.33
 -9 -1 -2 80.83 7.09
 -8 -1 -2 692.42 17.92
 -7 -1 -2 1315.41 22.35
 -6 -1 -2 1.96 6.09
 -5 -1 -2 2385.66 25.33
 -4 -1 -2 1052.63 15.52
 -3 -1 -2 4935.38 30.12
 -2 -1 -2 36.26 3.28
 -1 -1 -2 282.12 6.28
 0 -1 -2 3452.11 18.19
 1 -1 -2 48.66 3.19
 2 -1 -2 10089.29 83.07
 3 -1 -2 100.07 4.61
 4 -1 -2 1495.14 15.31
 5 -1 -2 1690.15 18.08
 6 -1 -2 4490.95 32.23
 7 -1 -2 196.72 7.73
 8 -1 -2 2045.68 25.87
 9 -1 -2 18.95 7.35
 -10 1 2 1068.71 21.73
 -11 1 2 352.54 13.76
 -12 1 2 6.91 9.96
 -13 1 2 21.14 11.35
 -14 1 2 -2.63 12.74
 -14 2 2 39.27 6.09
 -13 2 2 21.44 11.2
 -12 2 2 250.95 12.24
 -11 2 2 129.8 8.7
 10 -2 -2 228.38 10.31
 9 -2 -2 543.26 14.36
 8 -2 -2 923.53 17.56
 7 -2 -2 3776.57 32.62
 6 -2 -2 177.79 6.88
 5 -2 -2 3922.75 27.18
 4 -2 -2 218.07 6.38
 3 -2 -2 8700.45 33.21
 2 -2 -2 4808.02 23.08
 1 -2 -2 3581.24 19.35
 0 -2 -2 116.7 4.57
 -1 -2 -2 3039.25 20.3
 -2 -2 -2 2381.65 19.85
 -3 -2 -2 1242.31 15.97
 -4 -2 -2 1990.99 22.09
 -5 -2 -2 320.65 9.86
 -6 -2 -2 1049.41 18.97
 -7 -2 -2 57.3 6.26
 -8 -2 -2 940.37 20.54
 -9 -2 -2 1.23 8.76
 -10 -2 -2 27.45 10.48
 -11 -2 -2 52.61 6.66
 -12 -2 -2 -2.2 12.72
 -11 -3 -2 108 9.66
 -10 -3 -2 4.98 10.26
 -9 -3 -2 120.49 8.79
 -8 -3 -2 8.07 8.41
 -7 -3 -2 1796.8 27.33
 -6 -3 -2 761.71 16.93
 -5 -3 -2 1491.6 21.66
 -4 -3 -2 331.68 9.63
 -3 -3 -2 1110.43 15.8
 -2 -3 -2 7211.11 36.66
 -1 -3 -2 10.33 3.5
 0 -3 -2 414.59 7.79
 1 -3 -2 525.56 8.46
 2 -3 -2 3041.08 19.68
 3 -3 -2 3125.93 21.08
 4 -3 -2 3740.42 24.77
 5 -3 -2 2797.57 23.37
 6 -3 -2 2985.48 26.38
 7 -3 -2 3155.02 29.45
 8 -3 -2 158.11 7.82
 9 -3 -2 412.14 12.44
 10 -3 -2 89.05 6.78
 11 -3 -2 177.55 9.81
 -12 3 2 147.21 9.47
 -13 3 2 18.96 11.39
 -14 3 2 74.98 8.21
 -14 4 2 1.34 11.85
 -13 4 2 434.76 16.74
 12 -4 -2 30.2 10.15
 11 -4 -2 28.9 4.76
 10 -4 -2 26.26 4.34
 9 -4 -2 637.69 15.42
 8 -4 -2 704.63 15.27
 7 -4 -2 391.73 10.7
 6 -4 -2 3144.77 27.61
 5 -4 -2 1218.97 16.07
 4 -4 -2 3896.21 26.34
 3 -4 -2 9254.88 38.15
 2 -4 -2 626.94 9.84
 1 -4 -2 774.77 10.92
 0 -4 -2 1827.67 17.23
 -1 -4 -2 3371.93 24.73
 -2 -4 -2 64.68 4.45
 -3 -4 -2 371.17 9.75
 -4 -4 -2 89.65 5.54
 -5 -4 -2 2188.2 27.38
 -6 -4 -2 278.05 11.1
 -7 -4 -2 293.75 12.28
 -8 -4 -2 166.64 9.77
 -9 -4 -2 163.6 10.25
 -10 -4 -2 44.67 6.39
 -11 -4 -2 5.17 12.53
 -11 -5 -2 57.71 8.42
 -10 -5 -2 130.89 10.5
 -9 -5 -2 3.14 10.36
 -8 -5 -2 235.82 11.63
 -7 -5 -2 398.01 13.98
 -6 -5 -2 563.14 15.63
 -5 -5 -2 12.86 7.03
 -4 -5 -2 334.2 10.64
 -3 -5 -2 47.84 4.3
 -2 -5 -2 1862.16 21.35
 -1 -5 -2 1669.95 18.87
 0 -5 -2 499.71 9.88
 1 -5 -2 3376.53 24.3
 2 -5 -2 2066.29 18.99
 3 -5 -2 9110.09 40.27
 4 -5 -2 2743.87 23.19
 5 -5 -2 1483.38 18.05
 6 -5 -2 99.61 5.66
 7 -5 -2 1853.86 23.56
 8 -5 -2 179.99 8.13
 9 -5 -2 22.41 7.61
 10 -5 -2 183.29 9.23
 11 -5 -2 3.9 8.26
 12 -5 -2 371.26 14.55
 13 -5 -2 1.7 10.69
 -14 5 2 93.77 8.85
 14 -6 -2 66.86 7.91
 13 -6 -2 579.72 19.28
 12 -6 -2 29.89 10.1
 11 -6 -2 118.72 8.2
 10 -6 -2 34.33 4.84
 9 -6 -2 2574.08 31.92
 8 -6 -2 123.67 7.09
 7 -6 -2 168.04 7.7
 6 -6 -2 448.92 11.22
 5 -6 -2 942.56 14.98
 4 -6 -2 3104.49 25.98
 3 -6 -2 1730.09 19.11
 2 -6 -2 2059.12 20.59
 1 -6 -2 580.47 11
 0 -6 -2 2905.64 25.21
 -1 -6 -2 1261.34 17.39
 -2 -6 -2 315.74 9.48
 -3 -6 -2 39.33 4.27
 -4 -6 -2 22.24 4.05
 -5 -6 -2 840.94 18.35
 -6 -6 -2 26.72 4.95
 -7 -6 -2 276.73 12.41
 -8 -6 -2 2.11 9.65
 -9 -6 -2 398.69 16.49
 -10 -6 -2 21.22 12.89
 -10 -7 -2 207.83 13.51
 -9 -7 -2 18.96 12.34
 -8 -7 -2 108.82 8.94
 -7 -7 -2 7.76 9.19
 -6 -7 -2 146.93 8.91
 -5 -7 -2 116.93 7.75
 -4 -7 -2 2.76 6.96
 -3 -7 -2 257.08 9.71
 -2 -7 -2 42.77 4.44
 -1 -7 -2 2524.72 26.5
 0 -7 -2 562.46 12.18
 1 -7 -2 2967.95 26.54
 2 -7 -2 508.05 10.97
 3 -7 -2 504.42 10.97
 4 -7 -2 1445.33 18.93
 5 -7 -2 2.4 4.84
 6 -7 -2 667.96 13.81
 7 -7 -2 -1.87 6.02
 8 -7 -2 156.89 7.94
 9 -7 -2 1417.25 23.77
 10 -7 -2 468.16 14.82
 11 -7 -2 366.11 13.9
 12 -7 -2 157.04 9.85
 13 -7 -2 368.43 15.57
 14 -7 -2 17.24 12.69
 14 -8 -2 162.09 11.46
 13 -8 -2 28.45 11.55
 12 -8 -2 362.4 14.84
 11 -8 -2 3.26 8.87
 10 -8 -2 1057.93 22.25
 9 -8 -2 -0.43 7.58
 8 -8 -2 -0.07 6.72
 7 -8 -2 101.98 6.5
 6 -8 -2 679.03 14.75
 5 -8 -2 620.29 13.47
 4 -8 -2 272.17 8.97
 3 -8 -2 638.92 13.1
 2 -8 -2 510.17 11.74
 1 -8 -2 1799.29 22.17
 0 -8 -2 1924.11 24.26
 -1 -8 -2 579.26 13.84
 -2 -8 -2 320.87 10.82
 -3 -8 -2 448.6 13.18
 -4 -8 -2 248.13 10.51
 -5 -8 -2 18.94 8.66
 -6 -8 -2 16.8 9.03
 -7 -8 -2 -3 9.68
 -8 -8 -2 25.8 11.68
 -9 -8 -2 87.48 9.55
 -9 -9 -2 13.52 13.23
 -8 -9 -2 6.06 11.52
 -7 -9 -2 6.95 10.68
 -6 -9 -2 14.22 9.66
 -5 -9 -2 188.18 10.36
 -4 -9 -2 235.74 11.02
 -3 -9 -2 96.53 7.28
 -2 -9 -2 876.92 18.38
 -1 -9 -2 201.81 9
 0 -9 -2 1818.7 24.49
 1 -9 -2 251.79 9.62
 2 -9 -2 1784.74 23.46
 3 -9 -2 46.9 4.57
 4 -9 -2 452.78 11.79
 5 -9 -2 488.96 12.64
 6 -9 -2 26.02 4.18
 7 -9 -2 202.92 9.22
 8 -9 -2 2.48 7.05
 9 -9 -2 680.57 17.26
 10 -9 -2 -4.16 8.99
 11 -9 -2 938.06 22.58
 12 -9 -2 17.07 10.35
 13 -9 -2 363.39 15.89
 14 -9 -2 4.51 12.31
 14 -10 -2 65.28 8
 13 -10 -2 34.26 12.61
 12 -10 -2 140.39 9.93
 11 -10 -2 204.22 11.07
 10 -10 -2 882.62 21.18
 9 -10 -2 5.59 8.07
 8 -10 -2 1461.23 25.05
 7 -10 -2 169.19 8.86
 6 -10 -2 1723.58 25.18
 5 -10 -2 11.31 6.47
 4 -10 -2 13.79 6.39
 3 -10 -2 6.19 6.01
 2 -10 -2 57.9 5.17
 1 -10 -2 1773.4 25.28
 0 -10 -2 10.19 6.97
 -1 -10 -2 890.81 18.65
 -2 -10 -2 5.55 7.73
 -3 -10 -2 1066.01 22.55
 -4 -10 -2 42.84 6.09
 -5 -10 -2 183.48 11.03
 -6 -10 -2 1.36 10.1
 -7 -10 -2 37.07 5.84
 -8 -10 -2 20.04 12.84
 -7 -11 -2 0.78 12.18
 -6 -11 -2 87.76 8.32
 -5 -11 -2 11.94 10.09
 -4 -11 -2 432.3 15.89
 -3 -11 -2 31.89 6.14
 -2 -11 -2 584.98 16.83
 -1 -11 -2 152.14 8.76
 0 -11 -2 55.91 5.72
 1 -11 -2 713.86 16.93
 2 -11 -2 18.21 7.35
 3 -11 -2 71.53 5.81
 4 -11 -2 257.17 10.34
 5 -11 -2 589.32 15.09
 6 -11 -2 399.86 13.01
 7 -11 -2 1073.9 21.34
 8 -11 -2 900.28 20.41
 9 -11 -2 528.33 16.19
 10 -11 -2 156.4 9.8
 11 -11 -2 187.14 10.89
 12 -11 -2 165.57 10.82
 13 -11 -2 3.2 11.75
 14 -11 -2 40.98 13.7
 13 -12 -2 45.44 6.91
 12 -12 -2 9.41 11.32
 11 -12 -2 365.37 15.09
 10 -12 -2 77.97 7.46
 9 -12 -2 450.24 15.64
 8 -12 -2 100.78 8.09
 7 -12 -2 806.35 19.5
 6 -12 -2 437.63 13.95
 5 -12 -2 134.8 8.04
 4 -12 -2 248.77 10.56
 3 -12 -2 52.3 5.74
 2 -12 -2 1107.45 21.8
 1 -12 -2 19.32 8.21
 0 -12 -2 71.61 6.2
 -1 -12 -2 16.88 8.54
 -2 -12 -2 481.64 16.22
 -3 -12 -2 313.07 13.79
 -4 -12 -2 97.4 8.54
 -5 -12 -2 20.53 11.68
 -6 -12 -2 27.79 12.89
 -6 -13 -2 24.86 13.58
 -5 -13 -2 67.62 7.97
 -4 -13 -2 9.9 11.27
 -3 -13 -2 140.6 10.5
 -2 -13 -2 22.22 9.89
 -1 -13 -2 176.15 10.42
 0 -13 -2 16.36 8.73
 1 -13 -2 -0.12 8.17
 2 -13 -2 97.75 7.57
 3 -13 -2 186.97 9.67
 4 -13 -2 609.03 16.78
 5 -13 -2 60.57 6.53
 6 -13 -2 431.65 14.44
 7 -13 -2 7.62 8.73
 8 -13 -2 1223.93 25.15
 9 -13 -2 5.79 9.44
 10 -13 -2 233.58 12.18
 11 -13 -2 5.18 10.73
 12 -13 -2 12.33 11.68
 13 -13 -2 69.05 8.42
 12 -14 -2 44.48 6.84
 11 -14 -2 18 11.67
 10 -14 -2 23.86 11.17
 9 -14 -2 134.19 9.55
 8 -14 -2 95.55 8.76
 7 -14 -2 343.3 14.12
 6 -14 -2 1.84 8.81
 5 -14 -2 609.46 17.84
 4 -14 -2 84.37 7.52
 3 -14 -2 203.15 10.5
 2 -14 -2 13.11 8.96
 1 -14 -2 14.56 9.1
 0 -14 -2 26.97 9.91
 -1 -14 -2 5.38 10
 -2 -14 -2 164.28 10.97
 -3 -14 -2 2.9 10.99
 -4 -14 -2 65.44 7.82
 -5 -14 -2 -0.66 12.78
 -4 -15 -2 1.17 12.99
 -3 -15 -2 34.56 12.58
 -2 -15 -2 11.83 11.19
 -1 -15 -2 31.84 5.44
 0 -15 -2 70.63 7.63
 1 -15 -2 1.64 9.66
 2 -15 -2 126.45 9.21
 3 -15 -2 -0.33 9.59
 4 -15 -2 445.04 15.96
 5 -15 -2 29.94 5.78
 6 -15 -2 221.27 11.67
 7 -15 -2 14.72 10.22
 8 -15 -2 32.16 10.82
 9 -15 -2 72.4 7.89
 10 -15 -2 1.16 11.02
 11 -15 -2 45.52 6.52
 12 -15 -2 6.79 12.89
 11 -16 -2 16.45 12.56
 10 -16 -2 22.25 12.58
 9 -16 -2 6.85 11.19
 8 -16 -2 125.3 9.9
 7 -16 -2 14.64 10.65
 6 -16 -2 175.12 10.71
 5 -16 -2 138.65 10.19
 4 -16 -2 262.29 13.33
 3 -16 -2 147.08 10.45
 2 -16 -2 49.97 6.47
 1 -16 -2 56.73 7.24
 0 -16 -2 17.22 11.45
 -1 -16 -2 36.2 12.71
 -2 -16 -2 -2.32 12.44
 -1 -17 -2 16.14 13.03
 0 -17 -2 40.94 13.71
 1 -17 -2 120.18 10.42
 2 -17 -2 20.11 12.08
 3 -17 -2 112.71 9.88
 4 -17 -2 8.94 11.31
 5 -17 -2 147.82 10.89
 6 -17 -2 -0.57 11.04
 7 -17 -2 28.49 12.12
 8 -17 -2 4.04 11.51
 9 -17 -2 7.61 12.03
 10 -17 -2 41.01 13.78
 9 -18 -2 22.95 13.56
 8 -18 -2 3.44 12.17
 7 -18 -2 7.54 12.07
 6 -18 -2 2.54 12.23
 5 -18 -2 0.14 11.91
 4 -18 -2 61.36 7.59
 3 -18 -2 1.23 11.88
 2 -18 -2 51.2 7.35
 1 -18 -2 -2.28 13.72
 4 -19 -2 19.19 13.12
 5 -19 -2 8.43 12.95
 6 -19 -2 26.44 13.57
 3 -18 -3 2.12 12.54
 4 -18 -3 26.05 13.37
 5 -18 -3 3.52 12.25
 6 -18 -3 11.6 12.54
 7 -18 -3 28.42 13.33
 8 -18 -3 -0.39 12.81
 10 -17 -3 97.43 9.46
 9 -17 -3 22.66 12.71
 8 -17 -3 7.72 12.08
 7 -17 -3 12.59 12.13
 6 -17 -3 -2.56 11.73
 5 -17 -3 74.16 8.09
 4 -17 -3 33.21 12.46
 3 -17 -3 99.62 9.8
 2 -17 -3 25.98 12.94
 1 -17 -3 92.87 9.87
 0 -17 -3 57.22 8.79
 -1 -16 -3 28.56 13.04
 0 -16 -3 34.18 13
 1 -16 -3 189.84 12.48
 2 -16 -3 42.71 6.28
 3 -16 -3 99.7 9.13
 4 -16 -3 108.23 9.6
 5 -16 -3 84.29 8.51
 6 -16 -3 68.06 7.27
 7 -16 -3 3.33 10.75
 8 -16 -3 48.13 6.76
 9 -16 -3 1.28 11.49
 10 -16 -3 43.3 7.09
 11 -16 -3 19.75 13.24
 12 -15 -3 -1.77 13.62
 11 -15 -3 21.97 12.64
 10 -15 -3 17.17 11.79
 9 -15 -3 63.49 7.55
 8 -15 -3 9.1 10.5
 7 -15 -3 16.43 10.32
 6 -15 -3 46.13 6.25
 5 -15 -3 39.18 5.64
 4 -15 -3 373.86 15.48
 3 -15 -3 -0.91 10.04
 2 -15 -3 227.44 12.17
 1 -15 -3 -7.5 10.86
 0 -15 -3 181.64 11.48
 -1 -15 -3 -4.71 11.7
 -2 -15 -3 1.19 11.71
 -3 -15 -3 -0.56 12.69
 -4 -14 -3 26.82 13.33
 -3 -14 -3 1.57 11.44
 -2 -14 -3 16.81 11.34
 -1 -14 -3 23.96 11.22
 0 -14 -3 3.6 10.02
 1 -14 -3 81.77 7.53
 2 -14 -3 -0.99 9.53
 3 -14 -3 376.69 14.74
 4 -14 -3 2.96 9.38
 5 -14 -3 640.42 18.65
 6 -14 -3 7.8 9.17
 7 -14 -3 223.17 11.57
 8 -14 -3 16.43 10.11
 9 -14 -3 8.17 10.26
 10 -14 -3 114.79 9.56
 11 -14 -3 -1.11 11.42
 12 -14 -3 109.2 9.86
 13 -13 -3 131.23 11.02
 12 -13 -3 6.21 11.94
 11 -13 -3 1.5 10.71
 10 -13 -3 25.38 10.63
 9 -13 -3 4.74 9.37
 8 -13 -3 437.11 15.51
 7 -13 -3 108.54 8
 6 -13 -3 301.93 12.53
 5 -13 -3 325.29 12.88
 4 -13 -3 683.93 18.72
 3 -13 -3 203.55 10.37
 2 -13 -3 40.81 5.44
 1 -13 -3 26.98 9.44
 0 -13 -3 1.23 9.23
 -1 -13 -3 174.71 10.61
 -2 -13 -3 10.7 10.34
 -3 -13 -3 14.17 11.15
 -4 -13 -3 11.6 11.99
 -5 -13 -3 33.14 13.7
 -6 -12 -3 2.02 12.87
 -5 -12 -3 44.24 7.11
 -4 -12 -3 22.64 11.28
 -3 -12 -3 116.33 8.97
 -2 -12 -3 115.83 9.07
 -1 -12 -3 152.09 9.7
 0 -12 -3 25.68 8.81
 1 -12 -3 2.48 8
 2 -12 -3 830.5 19.39
 3 -12 -3 3.1 7.79
 4 -12 -3 520.39 15.73
 5 -12 -3 107.57 7.78
 6 -12 -3 447.28 14.46
 7 -12 -3 334.29 12.96
 8 -12 -3 139.89 8.98
 9 -12 -3 164.13 10.16
 10 -12 -3 9.37 9.75
 11 -12 -3 68.76 7.28
 12 -12 -3 20.6 11.64
 13 -12 -3 27.58 12.83
 14 -11 -3 13.89 12.96
 13 -11 -3 11.83 12.03
 12 -11 -3 158.09 10.74
 11 -11 -3 137.82 9.75
 10 -11 -3 22.17 9.85
 9 -11 -3 621.44 17.97
 8 -11 -3 261.51 11.84
 7 -11 -3 784.76 18.49
 6 -11 -3 1.53 7.53
 5 -11 -3 1029.82 20.81
 4 -11 -3 356.4 12.41
 3 -11 -3 675.53 16.59
 2 -11 -3 5.83 7.32
 1 -11 -3 17.55 7.73
 0 -11 -3 12.16 7.8
 -1 -11 -3 1.17 8.03
 -2 -11 -3 342.38 13.65
 -3 -11 -3 -2.02 9.74
 -4 -11 -3 230.55 12.31
 -5 -11 -3 5.52 10.96
 -6 -11 -3 127.14 10.48
 -7 -10 -3 70.51 8.26
 -6 -10 -3 2.44 11
 -5 -10 -3 121.84 9.19
 -4 -10 -3 118.82 9.06
 -3 -10 -3 636.06 18.5
 -2 -10 -3 4.49 8.25
 -1 -10 -3 309.85 11.84
 0 -10 -3 12.92 7.07
 1 -10 -3 206.35 9.36
 2 -10 -3 674.81 15.96
 3 -10 -3 37.53 4.94
 4 -10 -3 630.79 15.26
 5 -10 -3 104.32 6.84
 6 -10 -3 1262.06 22.24
 7 -10 -3 17.41 7.87
 8 -10 -3 1669.28 26.98
 9 -10 -3 48.4 5.96
 10 -10 -3 862.97 21.18
 11 -10 -3 25.77 10.44
 12 -10 -3 66.01 7.09
 13 -10 -3 57.71 7.34
 14 -10 -3 3.48 12.52
 14 -9 -3 -7.48 12.49
 13 -9 -3 163.26 11.15
 12 -9 -3 -3.38 10.47
 11 -9 -3 840.99 21.34
 10 -9 -3 91.88 7.35
 9 -9 -3 1109.78 22.26
 8 -9 -3 417.2 13.64
 7 -9 -3 2648.68 32.33
 6 -9 -3 735.81 16.29
 5 -9 -3 150.04 7.76
 4 -9 -3 30.52 4.08
 3 -9 -3 4.26 5.94
 2 -9 -3 2494.27 29.23
 1 -9 -3 59.28 5.85
 0 -9 -3 1599.82 24.48
 -1 -9 -3 263.12 10.53
 -2 -9 -3 1295.43 23.41
 -3 -9 -3 508.52 15.65
 -4 -9 -3 287.31 13.06
 -5 -9 -3 66.92 6.84
 -6 -9 -3 108.05 8.98
 -7 -9 -3 16.53 11.55
 -8 -9 -3 -0.29 12.2
 -8 -8 -3 3.91 11.96
 -7 -8 -3 14.6 10.88
 -6 -8 -3 103.13 8.2
 -5 -8 -3 -0.32 8.81
 -4 -8 -3 859.28 20.03
 -3 -8 -3 432.9 13.93
 -2 -8 -3 607.02 15.28
 -1 -8 -3 307.46 10.73
 0 -8 -3 1213.91 19.98
 1 -8 -3 2256.44 26.25
 2 -8 -3 344.92 10.32
 3 -8 -3 19.78 3.37
 4 -8 -3 12.31 5.7
 5 -8 -3 1073.92 18.24
 6 -8 -3 207.72 8.83
 7 -8 -3 1216.71 20.95
 8 -8 -3 159.91 8.37
 9 -8 -3 1067.74 21.51
 10 -8 -3 721.18 18.4
 11 -8 -3 38.97 5.49
 12 -8 -3 231.71 12.17
 13 -8 -3 60.55 7.14
 14 -8 -3 114.46 9.8
 14 -7 -3 70.24 8.22
 13 -7 -3 135.1 10.24
 12 -7 -3 218.27 11.54
 11 -7 -3 584.3 17.51
 10 -7 -3 750.83 18.86
 9 -7 -3 175.28 8.96
 8 -7 -3 15.96 6.98
 7 -7 -3 75.8 5.77
 6 -7 -3 1672.09 22.48
 5 -7 -3 149.15 7.17
 4 -7 -3 855.19 15.21
 3 -7 -3 600.91 12.57
 2 -7 -3 704.24 13.59
 1 -7 -3 2435.46 25.85
 0 -7 -3 542.15 12.68
 -1 -7 -3 1682.58 22.99
 -2 -7 -3 217.83 9.12
 -3 -7 -3 1036.51 20.05
 -4 -7 -3 10.84 7.61
 -5 -7 -3 215.82 10.58
 -6 -7 -3 40.63 5.56
 -7 -7 -3 24.07 10.48
 -8 -7 -3 22.88 11.55
 -9 -7 -3 -7.42 12.82
 -10 -6 -3 24.06 13.47
 -9 -6 -3 133.43 11.21
 -8 -6 -3 -2.31 10.53
 -7 -6 -3 46.92 5.95
 -6 -6 -3 11.47 8.62
 -5 -6 -3 288.15 11.5
 -4 -6 -3 170.35 8.85
 -3 -6 -3 -0.21 6.52
 -2 -6 -3 544.83 13.07
 -1 -6 -3 222.7 8.25
 0 -6 -3 4098.83 32.5
 1 -6 -3 55.44 4.36
 2 -6 -3 447.72 10.3
 3 -6 -3 64.13 4.55
 4 -6 -3 2992.58 27.13
 5 -6 -3 3195.91 28.91
 6 -6 -3 32.79 4.15
 7 -6 -3 698.15 15.17
 8 -6 -3 68.03 5.79
 9 -6 -3 1641.11 25.48
 10 -6 -3 33.36 5.16
 11 -6 -3 662.73 18.31
 12 -6 -3 8.98 9.47
 13 -6 -3 771.91 22.1
 14 -6 -3 66.5 8.04
 14 -5 -3 287.95 14.58
 13 -5 -3 27.85 11.6
 12 -5 -3 365.79 14.5
 11 -5 -3 4.87 8.47
 10 -5 -3 903.39 19.99
 9 -5 -3 297.78 11.17
 8 -5 -3 344.05 11.04
 7 -5 -3 814.66 15.61
 6 -5 -3 661.77 13.34
 5 -5 -3 1851.18 21.23
 4 -5 -3 3.74 4.48
 3 -5 -3 3081.31 25.4
 2 -5 -3 2.51 3.96
 1 -5 -3 1393.85 17.26
 0 -5 -3 627.55 12.15
 -1 -5 -3 479.87 11.15
 -2 -5 -3 386.72 10.51
 -3 -5 -3 136.79 6.92
 -4 -5 -3 99.5 6.82
 -5 -5 -3 24.22 4.13
 -6 -5 -3 206.98 10.23
 -7 -5 -3 35.65 5.35
 -8 -5 -3 146.32 9.96
 -9 -5 -3 63.43 8
 -10 -5 -3 40.14 13.44
 -10 -4 -3 163.19 11.82
 -9 -4 -3 130.39 9.86
 -8 -4 -3 65.02 6.61
 -7 -4 -3 44.3 5.8
 -6 -4 -3 132.76 8.3
 -5 -4 -3 1000.92 19.84
 -4 -4 -3 -3.37 6
 -3 -4 -3 256.54 8.74
 -2 -4 -3 3.29 4.52
 -1 -4 -3 3715.28 28.54
 0 -4 -3 1926.04 19.45
 1 -4 -3 2422.58 21.21
 2 -4 -3 2512.96 21.56
 3 -4 -3 4794.57 29.96
 4 -4 -3 6532.32 36.17
 5 -4 -3 50.19 4.23
 6 -4 -3 644.29 12.91
 7 -4 -3 381.37 10.84
 8 -4 -3 448.9 12.4
 9 -4 -3 1753.9 26.06
 10 -4 -3 150.92 8.69
 11 -4 -3 275.51 11.96
 12 -4 -3 81.79 7.36
 13 -4 -3 614.4 19.52
 14 -4 -3 -0.2 11.87
 14 -3 -3 109.47 9.65
 13 -3 -3 224.45 12.29
 12 -3 -3 156.81 9.83
 11 -3 -3 72.98 6.65
 10 -3 -3 -1.82 7.63
 9 -3 -3 1331.64 22.54
 8 -3 -3 25.81 4.64
 7 -3 -3 1190.85 18.54
 6 -3 -3 1550.12 19.69
 5 -3 -3 3203.11 26.14
 4 -3 -3 5353.62 31.47
 3 -3 -3 2278.43 19.67
 2 -3 -3 7242.22 34.17
 1 -3 -3 437.36 8.64
 0 -3 -3 908.3 12.63
 -1 -3 -3 708.81 12.01
 -2 -3 -3 740.12 12.94
 -3 -3 -3 550.65 12.02
 -4 -3 -3 54.13 4.72
 -5 -3 -3 1074.64 19.84
 -6 -3 -3 137.14 8.01
 -7 -3 -3 807.61 19.62
 -8 -3 -3 8.4 8.9
 -9 -3 -3 160.21 10.27
 -10 -3 -3 -0.43 11.19
 -11 -3 -3 85.06 9.14
 -11 -2 -3 57.59 7.84
 -10 -2 -3 75.14 8.07
 -9 -2 -3 3.15 9.43
 -8 -2 -3 369.63 13.57
 -7 -2 -3 372.6 13.2
 -6 -2 -3 1399.57 22.96
 -5 -2 -3 112.93 6.92
 -4 -2 -3 355.02 10.25
 -3 -2 -3 14.08 2.83
 -2 -2 -3 605.55 11.2
 -1 -2 -3 1131.02 14.39
 0 -2 -3 1.45 3.5
 1 -2 -3 50.54 3.53
 2 -2 -3 38.22 3.23
 3 -2 -3 7986.14 35.09
 4 -2 -3 23.88 3.02
 5 -2 -3 3115.76 25.12
 6 -2 -3 124.96 6.08
 7 -2 -3 5741.26 39.99
 8 -2 -3 745.13 15.92
 9 -2 -3 286.24 10.93
 10 -2 -3 -2.36 7.59
 11 -2 -3 147.36 8.98
 12 -2 -3 291.83 13.01
 13 -2 -3 41.84 6.48
 14 -2 -3 19.61 12.42
 14 -1 -3 2.88 12.07
 13 -1 -3 110.52 9.27
 12 -1 -3 11.85 9.83
 11 -1 -3 62.21 6.6
 10 -1 -3 390.43 13.33
 9 -1 -3 125.69 7.67
 8 -1 -3 1318.33 20.82
 7 -1 -3 3.24 5.54
 6 -1 -3 4516.54 32.76
 5 -1 -3 272.66 7.72
 4 -1 -3 2862.41 22.26
 3 -1 -3 429.72 8.24
 2 -1 -3 664.43 9.59
 1 -1 -3 4018.94 22.74
 0 -1 -3 448.35 8.13
 -1 -1 -3 2182.4 18.67
 -2 -1 -3 771.48 12.09
 -3 -1 -3 1875.69 20.58
 -4 -1 -3 301.7 9.2
 -5 -1 -3 1934.97 24.84
 -6 -1 -3 -3.14 7.19
 -7 -1 -3 697.51 17.54
 -8 -1 -3 321.52 12.68
 -9 -1 -3 107.17 8.12
 -10 -1 -3 -2.19 10.41
 -11 -1 -3 2.09 11.63
 -12 0 -3 7.71 12.98
 -11 0 -3 27.15 11.89
 -10 0 -3 5.31 9.72
 -9 0 -3 157.48 9.67
 -8 0 -3 109.11 8.28
 -7 0 -3 1248.3 22.51
 -6 0 -3 2350.75 28.93
 -5 0 -3 1225.99 18.96
 -4 0 -3 1319.72 18.16
 -3 0 -3 4699.69 31.55
 -2 0 -3 8905.89 39.31
 -1 0 -3 3836.73 23.7
 0 0 -3 233.6 5.96
 1 0 -3 108.37 4.39
 2 0 -3 4968.92 25.16
 3 0 -3 4650.63 25.9
 4 0 -3 1076.02 13.73
 5 0 -3 2687.62 23.5
 6 0 -3 1771.22 20.83
 7 0 -3 5225.75 38.93
 8 0 -3 37.12 5.16
 9 0 -3 1068.67 20.47
 10 0 -3 31.42 5
 11 0 -3 861.15 21.31
 12 0 -3 165.49 10.19
 13 0 -3 -4.07 11.28
 -14 0 3 23.72 13.05
 -14 -1 3 107.74 9.84
 -13 -1 3 3.2 11.26
 12 1 -3 204.39 11.43
 11 1 -3 84.62 7.43
 10 1 -3 1314.72 24.65
 9 1 -3 1091.99 21.17
 8 1 -3 1310.22 21.45
 7 1 -3 1236.61 19.44
 6 1 -3 1115.41 16.87
 5 1 -3 841.75 13.61
 4 1 -3 95.26 4.72
 3 1 -3 228.83 6.23
 2 1 -3 595.15 9.09
 1 1 -3 1607.39 14.1
 0 1 -3 1366.02 13.2
 -1 1 -3 1120.44 12.82
 -2 1 -3 3224.31 23.15
 -3 1 -3 2895.78 24.16
 -4 1 -3 3746.94 29.97
 -5 1 -3 383.31 10.62
 -6 1 -3 478.43 12.86
 -7 1 -3 14.66 7.44
 -8 1 -3 650.36 17.03
 -9 1 -3 69.12 6.76
 -10 1 -3 2.13 9.42
 -11 1 -3 19.86 11.21
 -12 1 -3 6.91 12.33
 -12 2 -3 108.82 9.73
 -11 2 -3 1.08 10.59
 -10 2 -3 79.44 7.69
 -9 2 -3 2.73 8.44
 -8 2 -3 151.64 8.8
 -7 2 -3 1.42 6.7
 -6 2 -3 2.07 5.78
 -5 2 -3 707.44 13.99
 -4 2 -3 8.41 4.71
 -3 2 -3 5474.59 32.5
 -2 2 -3 1721.7 16.87
 -1 2 -3 662.63 9.77
 0 2 -3 624.51 9.15
 1 2 -3 3795.1 21.81
 2 2 -3 2500.95 18.61
 3 2 -3 41.62 3.39
 4 2 -3 112.11 5.05
 5 2 -3 1.93 4.21
 6 2 -3 1563.72 20.34
 7 2 -3 744.24 15.61
 8 2 -3 1406.67 22.68
 9 2 -3 92.55 7.15
 10 2 -3 995.31 22.28
 -11 -2 3 323.52 13.73
 -12 -2 3 30.17 11.14
 -13 -2 3 12.25 11.93
 -13 -3 3 62.25 7.7
 -12 -3 3 2.05 10.85
 -11 -3 3 413.69 15.44
 -10 -3 3 156.19 9.65
 9 3 -3 1121.17 22.29
 8 3 -3 31.58 4.57
 7 3 -3 2200.42 27.35
 6 3 -3 2.54 5.34
 5 3 -3 2827.75 25.83
 4 3 -3 1126.65 15.2
 3 3 -3 248.73 6.88
 2 3 -3 607.79 9.77
 1 3 -3 754.35 10.4
 0 3 -3 7553.48 31.95
 -1 3 -3 843.42 11.33
 -2 3 -3 2610.56 20.86
 -3 3 -3 101.96 5.06
 -4 3 -3 4476.45 32.19
 -5 3 -3 553.02 12.31
 -6 3 -3 31.75 4.06
 -7 3 -3 19.45 6.84
 -8 3 -3 2.04 7.25
 -9 3 -3 213.97 10.58
 -10 3 -3 57.4 6.64
 -11 3 -3 116.76 9.15
 -12 3 -3 11.59 12.05
 -12 4 -3 69.95 7.85
 -11 4 -3 83.32 8.29
 -10 4 -3 26.39 9.75
 -9 4 -3 232.76 11.21
 -8 4 -3 56.93 5.58
 -7 4 -3 -0.2 6.38
 -6 4 -3 864.53 16.58
 -5 4 -3 81.33 5.19
 -4 4 -3 1812.8 20.53
 -3 4 -3 919.16 13.61
 -2 4 -3 209.47 6.37
 -1 4 -3 5196.19 28.38
 0 4 -3 1423.99 14.89
 1 4 -3 3001.7 21.6
 2 4 -3 2.25 3.45
 3 4 -3 501.65 9.99
 4 4 -3 189.12 6.83
 5 4 -3 876.52 15.01
 6 4 -3 1434.03 20.86
 7 4 -3 36.02 4.85
 8 4 -3 619.02 16.08
 -9 -4 3 25.4 8.75
 -10 -4 3 1050.46 23.67
 -11 -4 3 -3.05 10.34
 -12 -4 3 295.15 14.51
 -13 -4 3 -3.95 12.79
 -12 -5 3 174.68 11.83
 -11 -5 3 198.46 11.57
 -10 -5 3 29.48 5.3
 -9 -5 3 333.91 13.14
 -8 -5 3 196.73 9.54
 7 5 -3 5.16 6.8
 6 5 -3 363.32 11.29
 5 5 -3 349.19 10.34
 4 5 -3 1091.9 16.37
 3 5 -3 2452.48 23.12
 2 5 -3 1342.03 16.18
 1 5 -3 3722.18 25.39
 0 5 -3 2685.88 21.47
 -1 5 -3 6258.76 32.96
 -2 5 -3 41.15 3.48
 -3 5 -3 327.94 8.5
 -4 5 -3 212.34 7.39
 -5 5 -3 689.03 13.94
 -6 5 -3 810.11 16.13
 -7 5 -3 251.67 10.17
 -8 5 -3 261.8 10.83
 -9 5 -3 73.21 6.74
 -10 5 -3 347.44 14.24
 -11 5 -3 3.84 10.28
 -12 5 -3 76.29 8.38
 -13 5 -3 24.96 13.71
 -13 6 -3 66.66 8.48
 -12 6 -3 7.8 11.62
 -11 6 -3 315.32 14.44
 -10 6 -3 28.9 10
 -9 6 -3 678.16 18.34
 -8 6 -3 7.3 7.29
 -7 6 -3 731.86 16.73
 -6 6 -3 -0.02 6.05
 -5 6 -3 4.56 5.37
 -4 6 -3 459.81 10.94
 -3 6 -3 17.34 2.79
 -2 6 -3 1091.24 14.9
 -1 6 -3 823.55 12.81
 0 6 -3 9373.97 42.44
 1 6 -3 449.17 9.79
 2 6 -3 3320.64 26.84
 3 6 -3 762.96 13.64
 4 6 -3 1178.79 18.06
 5 6 -3 765.48 15.38
 6 6 -3 45.85 5.17
 -7 -6 3 1.72 7.21
 -8 -6 3 0.51 7.77
 -9 -6 3 107.41 7.86
 -10 -6 3 136.46 9.28
 -11 -6 3 109.92 9.27
 -12 -6 3 25.33 12.76
 -12 -7 3 106.85 10.26
 -11 -7 3 1.72 11.43
 -10 -7 3 60.98 7.19
 -9 -7 3 6.43 9.53
 -8 -7 3 80.11 6.96
 -7 -7 3 149.48 8.56
 -6 -7 3 182.24 8.93
 5 7 -3 777.1 16.4
 4 7 -3 6.36 6.3
 3 7 -3 4503.31 35.35
 2 7 -3 27.08 3.51
 1 7 -3 265.24 8.11
 0 7 -3 679.98 12.35
 -1 7 -3 1662 19.15
 -2 7 -3 1015.43 15.07
 -3 7 -3 10.13 4.65
 -4 7 -3 433.28 10.85
 -5 7 -3 76.69 5.32
 -6 7 -3 1438.59 22.02
 -7 7 -3 91.76 6.95
 -8 7 -3 750.52 18.44
 -9 7 -3 15.47 8.59
 -10 7 -3 391.93 14.88
 -11 7 -3 264.38 13.51
 -12 7 -3 28.13 11.88
 -13 7 -3 11.34 12.78
 -13 8 -3 -4.79 12.93
 -12 8 -3 63.24 7.82
 -11 8 -3 62.98 7.29
 -10 8 -3 142.59 9.36
 -9 8 -3 586.93 17.21
 -8 8 -3 411.67 13.9
 -7 8 -3 543.12 15.01
 -6 8 -3 597.67 14.78
 -5 8 -3 195.21 8.2
 -4 8 -3 220.3 8.27
 -3 8 -3 805.68 14.64
 -2 8 -3 100.75 5.56
 -1 8 -3 1062.14 16.15
 0 8 -3 272.01 8.43
 1 8 -3 255.12 8.37
 2 8 -3 2557.06 26.76
 3 8 -3 145.57 7.79
 -4 -8 3 1652.72 23.55
 -5 -8 3 115.46 7.26
 -6 -8 3 680.27 16.91
 -7 -8 3 5.6 8.34
 -8 -8 3 249.45 12.25
 -9 -8 3 53.59 6.41
 -10 -8 3 4.33 10.83
 -11 -8 3 35.11 12.86
 -10 -9 3 1.13 11.41
 -9 -9 3 62.86 7.15
 -8 -9 3 13.36 9.94
 -7 -9 3 781.82 20.2
 -6 -9 3 118.44 8.08
 -5 -9 3 316.05 11.62
 -4 -9 3 197.42 9.11
 -3 -9 3 962 18.01
 2 9 -3 1046.71 18.14
 1 9 -3 424.4 11.45
 0 9 -3 503.17 11.94
 -1 9 -3 83.57 5.53
 -2 9 -3 965.34 16.66
 -3 9 -3 182.57 7.64
 -4 9 -3 473.7 12.24
 -5 9 -3 179.37 8.17
 -6 9 -3 312.97 11.2
 -7 9 -3 1080.35 21.28
 -8 9 -3 78.92 6.83
 -9 9 -3 357 13.6
 -10 9 -3 70.43 7.14
 -11 9 -3 246.74 13.14
 -12 9 -3 -1.83 11.81
 -13 9 -3 6.44 12.95
 -12 10 -3 18.04 12.25
 -11 10 -3 4.05 10.8
 -10 10 -3 71.5 7.24
 -9 10 -3 -0.3 9.14
 -8 10 -3 679.85 18.29
 -7 10 -3 58.13 6.01
 -6 10 -3 1364.25 23.29
 -5 10 -3 263.31 10.27
 -4 10 -3 1576.86 23.14
 -3 10 -3 444.29 12.14
 -2 10 -3 413.5 11.52
 -1 10 -3 252.51 9.14
 0 10 -3 1.77 5.71
 -1 -10 3 721.36 15.42
 -2 -10 3 22.82 3.8
 -3 -10 3 812.43 17.6
 -4 -10 3 84.92 6.41
 -5 -10 3 1089.71 21.93
 -6 -10 3 211.33 10.87
 -7 -10 3 245.6 12.14
 -8 -10 3 113.69 9.02
 -9 -10 3 53.91 7.17
 -10 -10 3 20.48 12.93
 -9 -11 3 2.19 11.93
 -8 -11 3 185.73 11.72
 -7 -11 3 41.04 6.34
 -6 -11 3 473.87 16.46
 -5 -11 3 27.17 9.25
 -4 -11 3 790 18.91
 -3 -11 3 5.68 7.37
 -2 -11 3 317.37 11.29
 -1 -11 3 489.72 13.76
 0 -11 3 126.54 7
 -1 11 -3 251.82 9.81
 -2 11 -3 42.46 4.97
 -3 11 -3 1337.02 21.91
 -4 11 -3 -0.17 6.91
 -5 11 -3 659.58 16.13
 -6 11 -3 4.12 7.45
 -7 11 -3 412.1 14
 -8 11 -3 19.01 9
 -9 11 -3 7.67 9.18
 -10 11 -3 12.06 10.21
 -11 11 -3 1.42 10.79
 -12 11 -3 21.56 13.02
 -12 12 -3 6.76 12.26
 -11 12 -3 13.62 11.59
 -10 12 -3 -0.21 10.25
 -9 12 -3 100.75 8.47
 -8 12 -3 89.87 7.78
 -7 12 -3 108.21 7.69
 -6 12 -3 222.83 10.45
 -5 12 -3 112.21 7.58
 -4 12 -3 951.15 19.67
 -3 12 -3 6.68 7.16
 2 -12 3 728.41 16.59
 1 -12 3 21.33 7.33
 0 -12 3 373.54 12.3
 -1 -12 3 30.81 4.4
 -2 -12 3 172.57 8.99
 -3 -12 3 34.82 4.89
 -4 -12 3 24.18 9.24
 -5 -12 3 198.51 10.76
 -6 -12 3 2.35 10.04
 -7 -12 3 240.9 12.97
 -8 -12 3 5.52 11.86
 -9 -12 3 63.72 8.31
 -8 -13 3 76 8.7
 -7 -13 3 15.97 11.91
 -6 -13 3 147.78 10.61
 -5 -13 3 71.67 7.3
 -4 -13 3 115.16 8.58
 -3 -13 3 12.65 8.59
 -2 -13 3 6.54 8.15
 -1 -13 3 421.52 13.95
 0 -13 3 1.82 7.45
 1 -13 3 292.12 11.33
 2 -13 3 80.02 6.35
 3 -13 3 437.48 14.05
 4 -13 3 411.74 13.63
 -5 13 -3 145.32 8.88
 -6 13 -3 315.93 12.7
 -7 13 -3 15.51 9.06
 -8 13 -3 175.52 10.5
 -9 13 -3 18.6 10.48
 -10 13 -3 134.86 10.01
 -11 13 -3 -0.93 11.91
 -12 13 -3 4.47 12.93
 -11 14 -3 -1.51 13.09
 -10 14 -3 186.21 12.3
 -9 14 -3 4.71 10.25
 -8 14 -3 7.34 9.81
 7 -14 3 26.3 9.86
 6 -14 3 5 8.81
 5 -14 3 181.88 9.94
 4 -14 3 62.79 6.33
 3 -14 3 374.28 13.57
 2 -14 3 30.81 4.6
 1 -14 3 484.76 15.3
 0 -14 3 199.07 10.29
 -1 -14 3 141.41 9.09
 -2 -14 3 26.28 4.64
 -3 -14 3 8.97 9.3
 -4 -14 3 82.72 7.8
 -5 -14 3 -0.85 10.72
 -6 -14 3 7.7 11.72
 -7 -14 3 14.17 12.74
 -6 -15 3 -2.15 12.48
 -5 -15 3 9.71 11.81
 -4 -15 3 24.52 11.46
 -3 -15 3 -3.14 10.34
 -2 -15 3 184.49 10.9
 -1 -15 3 13.01 9.52
 0 -15 3 359.44 14.04
 1 -15 3 3.55 8.77
 2 -15 3 343.31 13.8
 3 -15 3 4.55 8.53
 4 -15 3 275.2 12.21
 5 -15 3 5.85 9.08
 6 -15 3 29.19 4.98
 7 -15 3 43.07 5.85
 8 -15 3 3.75 10
 9 -15 3 43.75 6.36
 -10 15 -3 2.21 11.71
 -11 15 -3 49.82 7.61
 10 -16 3 103.91 9.53
 9 -16 3 22.63 12.39
 8 -16 3 44.11 6.42
 7 -16 3 1.58 10.32
 6 -16 3 75.35 7.41
 5 -16 3 4.82 9.31
 4 -16 3 8.32 9.55
 3 -16 3 10.35 9.68
 2 -16 3 -7.91 9.72
 1 -16 3 277.97 13.05
 0 -16 3 0.79 9.82
 -1 -16 3 249.72 12.83
 -2 -16 3 5.26 10.53
 -3 -16 3 89.19 8.95
 -4 -16 3 13.38 11.96
 -5 -16 3 12.96 12.51
 -4 -17 3 61.29 8.28
 -3 -17 3 -0.25 12.37
 -2 -17 3 172.08 11.61
 -1 -17 3 27.88 11.53
 0 -17 3 168.02 10.84
 1 -17 3 52.98 7.02
 2 -17 3 73.71 8.01
 3 -17 3 7.97 10.29
 4 -17 3 0.87 10.11
 5 -17 3 12.5 10.46
 6 -17 3 13.5 11.13
 7 -17 3 49.87 6.83
 8 -17 3 22.32 12.12
 9 -17 3 11.27 12.7
 10 -17 3 43.49 7.24
 9 -18 3 13.59 13.28
 8 -18 3 39.12 6.71
 7 -18 3 41.92 7.16
 6 -18 3 56.04 7.45
 5 -18 3 19.5 11.78
 4 -18 3 16.27 11.3
 3 -18 3 -2.6 11.06
 2 -18 3 56.36 7.22
 1 -18 3 6.72 11.72
 0 -18 3 24.8 12.06
 -1 -18 3 54.13 7.38
 -2 -18 3 27.23 13.16
 -1 -19 3 27.42 13.87
 0 -19 3 1.23 12.16
 1 -19 3 12.02 12.67
 2 -19 3 13.99 12.14
 3 -19 3 29.83 12.76
 4 -19 3 21.27 12.29
 5 -19 3 -3.01 12.43
 6 -19 3 57.23 7.66
 7 -19 3 3.2 12.63
 4 -20 3 -0.28 12.7
 3 -20 3 39.67 13.84
 6 -19 4 11.56 12.82
 5 -19 4 2.99 11.98
 4 -19 4 -1 12.28
 3 -19 4 3.18 12.16
 2 -19 4 -0.22 12.11
 1 -19 4 14.65 13
 0 -19 4 -2.75 12.69
 -1 -19 4 23.1 13.69
 -2 -18 4 38.46 6.77
 -1 -18 4 33.51 6.19
 0 -18 4 20.11 12.49
 1 -18 4 33.88 12.19
 2 -18 4 21.91 11.65
 3 -18 4 -2.82 11.32
 4 -18 4 -2.24 11.25
 5 -18 4 2.09 11.35
 6 -18 4 -0.45 11.76
 7 -18 4 25.73 13.02
 -8 18 -4 2.35 12.52
 -9 17 -4 5.17 12.41
 -8 17 -4 11.45 12.27
 -7 17 -4 -5.74 11.93
 -6 17 -4 18.11 11.34
 5 -17 4 8.86 10.73
 4 -17 4 2.12 10.27
 3 -17 4 12.14 10.43
 2 -17 4 54.39 6.74
 1 -17 4 27.23 11.27
 0 -17 4 137.61 10.38
 -1 -17 4 43.12 6.49
 -2 -17 4 34.17 12.44
 -3 -17 4 7.67 12.32
 -4 -17 4 20.87 13.27
 -5 -16 4 -0.73 12.45
 -4 -16 4 3.5 12
 -3 -16 4 12.81 11.34
 -2 -16 4 2.34 10.41
 -1 -16 4 120.59 9.35
 0 -16 4 -2.21 10.14
 1 -16 4 207.23 11.5
 2 -16 4 16.58 10.06
 3 -16 4 141.77 9.85
 -4 16 -4 28.41 10.45
 -5 16 -4 47.62 6.26
 -6 16 -4 6.3 10.26
 -7 16 -4 0.72 10.59
 -8 16 -4 2.25 11.27
 -9 16 -4 13.38 12.39
 -10 16 -4 47.75 7.49
 -10 15 -4 -5.6 12.47
 -9 15 -4 16.24 11.91
 -8 15 -4 12.05 10.94
 -7 15 -4 -0.95 10.44
 -6 15 -4 34.65 5.55
 -5 15 -4 -1.37 9.6
 -4 15 -4 532.99 17.14
 -3 15 -4 -1.18 9.27
 -2 15 -4 601.6 17.94
 1 -15 4 -4.37 9.35
 0 -15 4 333.03 13.65
 -1 -15 4 2.98 9.48
 -2 -15 4 36.68 5.34
 -3 -15 4 2.97 9.8
 -4 -15 4 3.74 10.52
 -5 -15 4 9.29 11.54
 -6 -15 4 -2.91 12.74
 -7 -14 4 34.57 6.47
 -6 -14 4 29.26 12.23
 -5 -14 4 5.46 10.79
 -4 -14 4 103.24 8.61
 -3 -14 4 5.86 9.06
 -2 -14 4 6.84 8.89
 -1 -14 4 85.42 7.04
 0 14 -4 73.29 6.92
 -1 14 -4 248.2 11.25
 -2 14 -4 20.51 8.69
 -3 14 -4 411.36 14.43
 -4 14 -4 35.65 5.49
 -5 14 -4 231.97 11.58
 -6 14 -4 6.79 9.12
 -7 14 -4 129.43 9.2
 -8 14 -4 3.2 9.93
 -9 14 -4 1.47 10.96
 -10 14 -4 29.14 12.38
 -11 14 -4 -7.49 12.73
 -11 13 -4 4.89 12.17
 -10 13 -4 8.99 11.7
 -9 13 -4 -0.67 10.6
 -8 13 -4 133.75 9.6
 -7 13 -4 80.56 7.48
 -6 13 -4 282.23 12.24
 -5 13 -4 200.28 10.26
 -4 13 -4 319.99 12.81
 -3 13 -4 343.05 12.8
 -2 13 -4 156.74 8.69
 -1 13 -4 102.17 7.29
 0 13 -4 7.34 7.51
 1 13 -4 453.11 14.52
 -2 -13 4 2.76 8.11
 -3 -13 4 51.57 5.8
 -4 -13 4 94.21 7.84
 -5 -13 4 166.85 10.46
 -6 -13 4 255.95 13.42
 -7 -13 4 41.77 6.43
 -8 -13 4 60.12 8.12
 -9 -12 4 31.32 13.52
 -8 -12 4 4.54 11.94
 -7 -12 4 359.44 15.7
 -6 -12 4 4.76 10.2
 -5 -12 4 296.87 13.03
 -4 -12 4 76.64 6.81
 3 12 -4 243.2 11.08
 2 12 -4 167.19 9.12
 1 12 -4 32.13 4.69
 0 12 -4 263.24 10.69
 -1 12 -4 4.91 6.87
 -2 12 -4 508.87 14.4
 -3 12 -4 76.52 6.69
 -4 12 -4 799.55 18.68
 -5 12 -4 80.39 6.9
 -6 12 -4 353.57 13.17
 -7 12 -4 146.18 9.42
 -8 12 -4 30 10.1
 -9 12 -4 43.43 6.49
 -10 12 -4 -0.88 10.73
 -11 12 -4 20.06 12.33
 -12 11 -4 14.67 13.1
 -11 11 -4 4.11 11.49
 -10 11 -4 7.18 10.72
 -9 11 -4 115.19 8.88
 -8 11 -4 32.18 5.48
 -7 11 -4 471.21 15.31
 -6 11 -4 3.4 7.85
 -5 11 -4 649 16.43
 -4 11 -4 -1.43 7.19
 -3 11 -4 887.84 18.31
 -2 11 -4 0.54 6.55
 -1 11 -4 120.79 7.22
 0 11 -4 3.34 6.39
 1 11 -4 79.43 6.43
 2 11 -4 796.39 17.85
 3 11 -4 -0.63 7.52
 4 11 -4 751.12 18.67
 -5 -11 4 15.83 8.87
 -6 -11 4 547.98 17.65
 -7 -11 4 55.51 6.91
 -8 -11 4 202.27 12
 -9 -11 4 2.3 11.78
 -10 -10 4 26.01 12.99
 -9 -10 4 -0.66 11.48
 -8 -10 4 217.22 12.01
 -7 -10 4 58.09 6.73
 -6 -10 4 17.02 8.97
 5 10 -4 353.56 12.81
 4 10 -4 64.52 6.33
 3 10 -4 1218.21 21.78
 2 10 -4 40.24 4.89
 1 10 -4 660.97 15.07
 0 10 -4 -2.88 6.14
 -1 10 -4 353.28 11.09
 -2 10 -4 174.49 8.02
 -3 10 -4 89.11 6.19
 -4 10 -4 444.6 13.02
 -5 10 -4 29.4 4.89
 -6 10 -4 604.33 16.39
 -7 10 -4 -0.21 8.1
 -8 10 -4 534.79 16.62
 -9 10 -4 1.66 9.52
 -10 10 -4 118.35 9.2
 -11 10 -4 21.92 11.78
 -12 10 -4 6.41 12.53
 -12 9 -4 1.1 12.08
 -11 9 -4 131.53 10.52
 -10 9 -4 4.46 10.41
 -9 9 -4 303.14 13.31
 -8 9 -4 32.46 5.32
 -7 9 -4 756.65 18.76
 -6 9 -4 35.72 5.13
 -5 9 -4 108.58 6.85
 -4 9 -4 97.75 6.27
 -3 9 -4 288.12 10.04
 -2 9 -4 396.1 11.16
 -1 9 -4 248.41 9.04
 0 9 -4 312.58 9.95
 1 9 -4 197.67 8.27
 2 9 -4 245.9 9.6
 3 9 -4 1456.23 22.73
 4 9 -4 126.23 7.77
 5 9 -4 553.03 15.29
 6 9 -4 60.25 6.1
 7 9 -4 164.73 9.62
 -8 -9 4 9.33 9.74
 -9 -9 4 26.77 11.14
 -10 -9 4 7.73 11.72
 -11 -9 4 33.76 13.64
 -11 -8 4 52.37 7.25
 -10 -8 4 11.51 11.09
 -9 -8 4 67.56 7.02
 8 8 -4 116.24 8.7
 7 8 -4 5.14 7.9
 6 8 -4 566.6 15.61
 5 8 -4 0.26 6.94
 4 8 -4 2071.71 27.02
 3 8 -4 625.77 14.35
 2 8 -4 748.39 14.79
 1 8 -4 192.07 7.68
 0 8 -4 28.84 3.97
 -1 8 -4 1610.52 21.08
 -2 8 -4 5.56 5.13
 -3 8 -4 608.62 13.39
 -4 8 -4 -2.22 5.68
 -5 8 -4 237.04 9.41
 -6 8 -4 584.58 15.36
 -7 8 -4 467.35 14.27
 -8 8 -4 161.1 9.48
 -9 8 -4 165.65 10.09
 -10 8 -4 93.81 8.84
 -11 8 -4 5.52 11.37
 -12 8 -4 34.76 13.2
 -12 7 -4 36.16 6.14
 -11 7 -4 69.58 8.16
 -10 7 -4 81.14 8.13
 -9 7 -4 14.91 9.28
 -8 7 -4 92.78 7.3
 -7 7 -4 41.27 5.11
 -6 7 -4 683.13 16.02
 -5 7 -4 55.89 5.07
 -4 7 -4 192.2 8.15
 -3 7 -4 343.67 9.81
 -2 7 -4 63.39 4.76
 -1 7 -4 6318.5 39.45
 0 7 -4 2158.04 22.92
 1 7 -4 2581.92 25.37
 2 7 -4 323.84 9.48
 3 7 -4 2976.9 29.51
 4 7 -4 33.38 4.33
 5 7 -4 608.16 14.65
 6 7 -4 -2.1 7.05
 7 7 -4 95.98 7.18
 8 7 -4 176.38 9.89
 9 7 -4 -0.34 9.79
 -10 -7 4 234.78 12.13
 -11 -7 4 -5.31 11.87
 -12 -7 4 180.53 12.37
 -12 -6 4 2.19 12.35
 -11 -6 4 171.99 11.06
 10 6 -4 195.08 11.4
 9 6 -4 437.74 15.16
 8 6 -4 1.67 7.91
 7 6 -4 419.64 13.35
 6 6 -4 32.42 4.75
 5 6 -4 1204.81 19.55
 4 6 -4 382.18 10.66
 3 6 -4 429.16 10.59
 2 6 -4 1075.58 15.91
 1 6 -4 2146.83 22.12
 0 6 -4 8452.54 42.99
 -1 6 -4 1483.1 18.51
 -2 6 -4 1430.4 18.45
 -3 6 -4 3.8 4.77
 -4 6 -4 2045.67 24.5
 -5 6 -4 252.94 9.4
 -6 6 -4 142.03 7.73
 -7 6 -4 20.9 7.54
 -8 6 -4 22.92 8.3
 -9 6 -4 150.97 9.39
 -10 6 -4 5.74 9.72
 -11 6 -4 114.86 9.62
 -12 6 -4 -3.04 12.11
 -12 5 -4 60.38 7.83
 -11 5 -4 -1.97 11.23
 -10 5 -4 146.1 10.11
 -9 5 -4 42.55 5.7
 -8 5 -4 -6.75 8.09
 -7 5 -4 101.37 6.93
 -6 5 -4 3.23 6.24
 -5 5 -4 987.03 17.86
 -4 5 -4 1.95 5.21
 -3 5 -4 3394.64 29.23
 -2 5 -4 22.94 3.02
 -1 5 -4 1995.73 20.38
 0 5 -4 1236.31 15.91
 1 5 -4 715.89 12.08
 2 5 -4 712.89 12.42
 3 5 -4 60.71 4.37
 4 5 -4 515.48 11.68
 5 5 -4 334.93 10.24
 6 5 -4 1313.1 21.19
 7 5 -4 215.43 9.67
 8 5 -4 1256.82 23.43
 9 5 -4 249.39 11.61
 10 5 -4 323.94 14.11
 11 5 -4 213 12.14
 12 5 -4 118.62 9.75
 13 4 -4 0.64 12.31
 12 4 -4 116.93 9.61
 11 4 -4 10.9 10.38
 10 4 -4 1265.13 26
 9 4 -4 633.85 17.46
 8 4 -4 504.51 14.54
 7 4 -4 326.07 11.35
 6 4 -4 1595.78 22.23
 5 4 -4 431.24 11.14
 4 4 -4 8.81 4.6
 3 4 -4 1358.86 17.11
 2 4 -4 4.8 3.86
 1 4 -4 3097.01 24.01
 0 4 -4 2093.06 19.78
 -1 4 -4 1694.84 18.15
 -2 4 -4 1588.51 18.47
 -3 4 -4 1349.28 18.28
 -4 4 -4 2543.7 26.63
 -5 4 -4 48.05 4.98
 -6 4 -4 42.19 4.82
 -7 4 -4 19.28 7.38
 -8 4 -4 204.45 10.11
 -9 4 -4 147.19 9.59
 -10 4 -4 24.86 10.6
 -11 4 -4 40.81 6.29
 -12 4 -4 16.81 12.79
 -12 3 -4 1.84 12.79
 -11 3 -4 21.28 11.9
 -10 3 -4 3.44 9.86
 -9 3 -4 326.99 13.68
 -8 3 -4 11.73 8.55
 -7 3 -4 445.95 13.89
 -6 3 -4 966.71 19.05
 -5 3 -4 833.71 16.3
 -4 3 -4 2069.35 23.77
 -3 3 -4 1126.15 16.49
 -2 3 -4 2838.93 24.31
 -1 3 -4 761.84 11.93
 0 3 -4 2289.19 20.02
 1 3 -4 582.23 10.11
 2 3 -4 3318.99 24.48
 3 3 -4 1091.22 14.72
 4 3 -4 1055.24 15.38
 5 3 -4 1041.77 16.31
 6 3 -4 221.83 8.57
 7 3 -4 1808.99 24.63
 8 3 -4 204.76 9.78
 9 3 -4 1068.87 21.52
 10 3 -4 16.77 9.37
 11 3 -4 626.86 19.21
 12 3 -4 8.11 10.97
 13 3 -4 -0.05 12.13
 13 2 -4 19.17 12.1
 12 2 -4 -1 10.72
 11 2 -4 129.1 9.17
 10 2 -4 811.32 19.81
 9 2 -4 -0.02 7.55
 8 2 -4 950.35 18.91
 7 2 -4 194.88 8.63
 6 2 -4 3355.62 30.74
 5 2 -4 847.09 14.37
 4 2 -4 1017.92 14.7
 3 2 -4 315.7 7.96
 2 2 -4 591.72 10.17
 1 2 -4 2152.23 18.87
 0 2 -4 684.84 10.77
 -1 2 -4 2001.63 19.1
 -2 2 -4 3.95 4.2
 -3 2 -4 3357.27 28.32
 -4 2 -4 69.8 5.12
 -5 2 -4 2129.27 26.39
 -6 2 -4 20.3 4.44
 -7 2 -4 780.24 18.66
 -8 2 -4 476.56 15.68
 -9 2 -4 12.64 9.43
 -10 2 -4 1.72 9.86
 -11 2 -4 -1.11 11.52
 -12 2 -4 38.22 14.04
 -11 1 -4 12.76 12.11
 -10 1 -4 11.72 10.58
 -9 1 -4 -0.3 9.34
 -8 1 -4 552.74 16.92
 -7 1 -4 49.49 6.2
 -6 1 -4 1426.16 23.42
 -5 1 -4 174.35 8.16
 -4 1 -4 2181.96 24.95
 -3 1 -4 1060.01 16.09
 -2 1 -4 2783.06 24.45
 -1 1 -4 262.56 7.17
 0 1 -4 312.75 7.45
 1 1 -4 520.47 9.37
 2 1 -4 44.91 3.32
 3 1 -4 3429.63 24.83
 4 1 -4 382.66 9.08
 5 1 -4 3438.91 28.09
 6 1 -4 783.52 14.68
 7 1 -4 3073.88 30.75
 8 1 -4 762.33 16.81
 9 1 -4 208.22 9.87
 10 1 -4 70.39 6.76
 11 1 -4 39.34 5.54
 12 1 -4 176.16 10.61
 13 1 -4 34.97 6.2
 14 1 -4 36.71 13.45
 14 0 -4 59.57 7.5
 13 0 -4 16.42 11.28
 12 0 -4 158.76 9.98
 11 0 -4 94.2 7.62
 10 0 -4 18.43 8.15
 9 0 -4 623.38 15.92
 8 0 -4 1.85 6.41
 7 0 -4 2941.46 30.24
 6 0 -4 3070.02 28.08
 5 0 -4 1505.36 18.91
 4 0 -4 1435.31 17.13
 3 0 -4 2967.6 22.96
 2 0 -4 1484.53 15.84
 1 0 -4 268.77 6.82
 0 0 -4 1.43 3.33
 -1 0 -4 83.78 4.42
 -2 0 -4 2370.41 23
 -3 0 -4 1497.45 19.4
 -4 0 -4 190.07 7.85
 -5 0 -4 2512.45 29.22
 -6 0 -4 581.2 15.2
 -7 0 -4 1294.05 23.87
 -8 0 -4 34.23 5.79
 -9 0 -4 109.5 8.54
 -10 0 -4 19.97 11.2
 -11 0 -4 86.33 9.28
 -11 -1 -4 -2.32 13.12
 -10 -1 -4 46.63 6.59
 -9 -1 -4 155.27 10.24
 -8 -1 -4 140.79 9.19
 -7 -1 -4 77.19 7.32
 -6 -1 -4 173.92 9.12
 -5 -1 -4 695.49 15.99
 -4 -1 -4 352.03 10.44
 -3 -1 -4 43.1 3.96
 -2 -1 -4 -1.82 4.66
 -1 -1 -4 455.83 9.74
 0 -1 -4 707.62 11.53
 1 -1 -4 87.76 4.22
 2 -1 -4 1817.93 17.87
 3 -1 -4 7062.78 35.77
 4 -1 -4 2357.98 21.91
 5 -1 -4 297.76 8.44
 6 -1 -4 2508.67 25.58
 7 -1 -4 467.83 12.07
 8 -1 -4 878.43 17.51
 9 -1 -4 432.25 13.31
 10 -1 -4 33.62 4.91
 11 -1 -4 20.32 9.07
 12 -1 -4 -2.33 10.17
 13 -1 -4 300.83 14.36
 14 -1 -4 9.59 12.21
 14 -2 -4 107.46 10.06
 13 -2 -4 21.26 11.65
 12 -2 -4 420.41 15.56
 11 -2 -4 4.11 8.32
 10 -2 -4 55.51 5.73
 9 -2 -4 301.76 11.49
 8 -2 -4 87.99 6.39
 7 -2 -4 2233.12 26.06
 6 -2 -4 3.46 4.73
 5 -2 -4 2801.2 25.57
 4 -2 -4 2.27 4.32
 3 -2 -4 11407.52 46.55
 2 -2 -4 266.57 7.28
 1 -2 -4 2617.51 22.15
 0 -2 -4 106.78 4.95
 -1 -2 -4 1287.78 17.22
 -2 -2 -4 1196.47 17.35
 -3 -2 -4 23.92 3.32
 -4 -2 -4 48.97 4.71
 -5 -2 -4 -0.08 6.72
 -6 -2 -4 347.22 12.59
 -7 -2 -4 204.5 10.42
 -8 -2 -4 190.85 10.77
 -9 -2 -4 11.55 10.82
 -10 -2 -4 55.57 7.54
 -11 -2 -4 39.81 14.37
 -10 -3 -4 4.74 12.38
 -9 -3 -4 263.6 13.6
 -8 -3 -4 2.27 9.48
 -7 -3 -4 300.49 12.78
 -6 -3 -4 3.85 7.64
 -5 -3 -4 450.18 13.63
 -4 -3 -4 51.04 4.72
 -3 -3 -4 12.96 5.64
 -2 -3 -4 511.82 11.98
 -1 -3 -4 385.96 9.86
 0 -3 -4 3620.51 28.28
 1 -3 -4 652.01 11.61
 2 -3 -4 684.02 11.89
 3 -3 -4 4059.45 28.93
 4 -3 -4 3985.53 29.37
 5 -3 -4 2610.94 25.09
 6 -3 -4 334.92 9.93
 7 -3 -4 78.81 5.65
 8 -3 -4 3.15 6.35
 9 -3 -4 2418.33 30.75
 10 -3 -4 227.89 10.33
 11 -3 -4 211.67 10.76
 12 -3 -4 153.26 9.97
 13 -3 -4 672.63 20.98
 14 -3 -4 220.82 13.05
 14 -4 -4 12.91 12.36
 13 -4 -4 502.32 18.18
 12 -4 -4 297.56 13.45
 11 -4 -4 517.92 16.31
 10 -4 -4 303.33 12.05
 9 -4 -4 2120.42 28.92
 8 -4 -4 79.84 5.97
 7 -4 -4 95.15 6.06
 6 -4 -4 979.05 16.46
 5 -4 -4 22.79 3.57
 4 -4 -4 1022.03 15.53
 3 -4 -4 1983.75 21.06
 2 -4 -4 1290.95 17.03
 1 -4 -4 2386.86 23.58
 0 -4 -4 1328.13 18.01
 -1 -4 -4 2759.64 27.29
 -2 -4 -4 45.3 4.27
 -3 -4 -4 139.52 7.15
 -4 -4 -4 69.83 5.8
 -5 -4 -4 179.95 9.07
 -6 -4 -4 199.53 10.42
 -7 -4 -4 17.44 9.29
 -8 -4 -4 40.98 5.85
 -9 -4 -4 34.11 12.24
 -10 -4 -4 84.82 9.11
 -9 -5 -4 41.2 6.75
 -8 -5 -4 20.69 11.32
 -7 -5 -4 -0.24 9.52
 -6 -5 -4 69.61 6.65
 -5 -5 -4 50.04 5.67
 -4 -5 -4 411.98 13.15
 -3 -5 -4 393.59 12.19
 -2 -5 -4 249.18 9.34
 -1 -5 -4 590.12 13.36
 0 -5 -4 1658.1 21.35
 1 -5 -4 2318.02 24.32
 2 -5 -4 370.48 9.51
 3 -5 -4 370.4 9.62
 4 -5 -4 151.3 6.55
 5 -5 -4 1965.11 22.84
 6 -5 -4 421.1 11.33
 7 -5 -4 10.92 6.25
 8 -5 -4 4.81 6.53
 9 -5 -4 162.89 9.02
 10 -5 -4 888.98 20.04
 11 -5 -4 21.44 4.89
 12 -5 -4 457.57 16.25
 13 -5 -4 93.06 9.04
 14 -5 -4 278.99 14.36
 14 -6 -4 5.78 11.89
 13 -6 -4 402.06 16.61
 12 -6 -4 24 10.23
 11 -6 -4 890.66 21.52
 10 -6 -4 -0.49 8.25
 9 -6 -4 831.02 18.41
 8 -6 -4 463.18 13.59
 7 -6 -4 310.45 10.56
 6 -6 -4 348.33 10.53
 5 -6 -4 987.4 16.92
 4 -6 -4 612.14 13.02
 3 -6 -4 79.84 4.95
 2 -6 -4 1926.6 23.01
 1 -6 -4 8.26 5.63
 0 -6 -4 2346.9 26.83
 -1 -6 -4 85.35 5.88
 -2 -6 -4 918.96 18.44
 -3 -6 -4 48.73 5.59
 -4 -6 -4 282.25 11.71
 -5 -6 -4 267.15 11.94
 -6 -6 -4 -1.94 9.14
 -7 -6 -4 6.27 9.99
 -8 -6 -4 1.9 11.15
 -9 -6 -4 37.09 13.95
 -8 -7 -4 21.22 12.59
 -7 -7 -4 75.97 7.98
 -6 -7 -4 -0.25 9.54
 -5 -7 -4 127.13 8.56
 -4 -7 -4 29.63 5.31
 -3 -7 -4 1231.8 23.46
 -2 -7 -4 84.89 6.76
 -1 -7 -4 1156.03 20.31
 0 -7 -4 75.32 6.14
 1 -7 -4 3691.25 34.52
 2 -7 -4 535.15 12.96
 3 -7 -4 133.52 6.65
 4 -7 -4 172.94 7.65
 5 -7 -4 164.02 7.62
 6 -7 -4 1443.66 21.81
 7 -7 -4 106.35 6.9
 8 -7 -4 1568.64 24.57
 9 -7 -4 4.79 7.68
 10 -7 -4 1054.16 22.08
 11 -7 -4 383.2 14.55
 12 -7 -4 74.52 7.47
 13 -7 -4 23.08 11.56
 14 -7 -4 77.25 8.3
 14 -8 -4 73.53 7.95
 13 -8 -4 -1.07 11.15
 12 -8 -4 326.55 14.7
 11 -8 -4 220.72 11.86
 10 -8 -4 350.81 13.66
 9 -8 -4 482.65 14.84
 8 -8 -4 822.94 18.62
 7 -8 -4 515.26 14.32
 6 -8 -4 304.78 10.78
 5 -8 -4 477.7 13.01
 4 -8 -4 1.29 5.81
 3 -8 -4 99.5 6.22
 2 -8 -4 299.53 10.33
 1 -8 -4 1145.66 19.85
 0 -8 -4 238.7 9.65
 -1 -8 -4 215.27 9.56
 -2 -8 -4 797.06 18.45
 -3 -8 -4 54.06 6.37
 -4 -8 -4 529.96 16.85
 -5 -8 -4 27.85 5.02
 -6 -8 -4 80.13 7.94
 -7 -8 -4 5.92 11.49
 -8 -8 -4 10.8 12.72
 -7 -9 -4 63.03 8.09
 -6 -9 -4 30.12 12.35
 -5 -9 -4 37.73 6.03
 -4 -9 -4 91.1 7.86
 -3 -9 -4 372.03 14.27
 -2 -9 -4 496.21 15.61
 -1 -9 -4 71.08 6.19
 0 -9 -4 1.75 6.65
 1 -9 -4 9.78 6.7
 2 -9 -4 896.06 18.2
 3 -9 -4 26.17 4.54
 4 -9 -4 246.51 9.87
 5 -9 -4 227.11 9.5
 6 -9 -4 562.12 14.89
 7 -9 -4 1570.12 25.53
 8 -9 -4 98.06 7.63
 9 -9 -4 376.06 13.49
 10 -9 -4 195.66 10.62
 11 -9 -4 554.18 17.6
 12 -9 -4 99.02 8.56
 13 -9 -4 55.77 7.22
 14 -9 -4 25.44 12.98
 14 -10 -4 1.3 12.54
 13 -10 -4 105.56 9.54
 12 -10 -4 9.09 10.84
 11 -10 -4 6.51 9.84
 10 -10 -4 203.44 10.82
 9 -10 -4 3.43 8.5
 8 -10 -4 1420.52 25.68
 7 -10 -4 4.09 7.76
 6 -10 -4 761.82 17.78
 5 -10 -4 152.05 8.3
 4 -10 -4 1242.97 22.34
 3 -10 -4 20.74 3.91
 2 -10 -4 111.52 7.45
 1 -10 -4 1.7 6.93
 0 -10 -4 22.87 8.1
 -1 -10 -4 64.54 6.39
 -2 -10 -4 9.81 9.16
 -3 -10 -4 128.43 9.46
 -4 -10 -4 31.9 10.78
 -5 -10 -4 68.09 7.84
 -6 -10 -4 59.65 8.03
 -6 -11 -4 54.11 8.08
 -5 -11 -4 -7.42 12.14
 -4 -11 -4 40.76 6.02
 -3 -11 -4 -2.87 9.97
 -2 -11 -4 116.29 8.75
 -1 -11 -4 66.36 6.72
 0 -11 -4 -2.68 8.34
 1 -11 -4 127.98 7.96
 2 -11 -4 24.56 4.6
 3 -11 -4 501.53 14.91
 4 -11 -4 62.44 6.47
 5 -11 -4 448.13 14.3
 6 -11 -4 12.95 8.08
 7 -11 -4 497.21 15.6
 8 -11 -4 321.74 13.21
 9 -11 -4 17.33 9.55
 10 -11 -4 129.07 9.25
 11 -11 -4 21.94 10.67
 12 -11 -4 174.22 10.98
 13 -11 -4 0.9 12.06
 13 -12 -4 123.08 10.65
 12 -12 -4 60.9 7.49
 11 -12 -4 55.89 6.81
 10 -12 -4 11.77 10.09
 9 -12 -4 291.97 13.05
 8 -12 -4 102.63 8.21
 7 -12 -4 97.43 8.04
 6 -12 -4 419.52 14.89
 5 -12 -4 86.23 7.22
 4 -12 -4 819.47 19.93
 3 -12 -4 9.73 8.71
 2 -12 -4 317.06 12.7
 1 -12 -4 1.96 8.54
 0 -12 -4 247.58 11.88
 -1 -12 -4 12.96 10.09
 -2 -12 -4 47.66 6.42
 -3 -12 -4 33.99 5.54
 -4 -12 -4 6.03 11.63
 -5 -12 -4 23.91 13.03
 -4 -13 -4 -1.15 12.35
 -3 -13 -4 12 11.65
 -2 -13 -4 4.01 10.68
 -1 -13 -4 132.19 9.86
 0 -13 -4 44.48 6.22
 1 -13 -4 111.01 8.35
 2 -13 -4 76.45 7.17
 3 -13 -4 287.73 12.86
 4 -13 -4 575.2 18.03
 5 -13 -4 83.9 7.83
 6 -13 -4 277.08 12.54
 7 -13 -4 23.32 9.69
 8 -13 -4 249.82 12.48
 9 -13 -4 33.64 5.39
 10 -13 -4 30.62 11.49
 11 -13 -4 86.38 8.44
 12 -13 -4 16.77 12.63
 13 -13 -4 161.19 12.3
 12 -14 -4 103.87 10.1
 11 -14 -4 6.82 11.91
 10 -14 -4 145.67 10.4
 9 -14 -4 16.33 10.93
 8 -14 -4 7.29 10.35
 7 -14 -4 14.89 10.28
 6 -14 -4 6.21 9.6
 5 -14 -4 214.82 11.67
 4 -14 -4 18.3 10.18
 3 -14 -4 270.96 13.24
 2 -14 -4 21.63 10.62
 1 -14 -4 264.14 13.43
 0 -14 -4 57.01 7.72
 -1 -14 -4 47.2 6.78
 -2 -14 -4 1.49 11.72
 -3 -14 -4 4.51 12.57
 -2 -15 -4 4.22 12.64
 -1 -15 -4 1.88 11.96
 0 -15 -4 194.54 12.36
 1 -15 -4 5.23 11.49
 2 -15 -4 138.07 10.27
 3 -15 -4 2.29 10.58
 4 -15 -4 285.33 13.92
 5 -15 -4 11.12 10.66
 6 -15 -4 23.34 11.06
 7 -15 -4 58.05 7.13
 8 -15 -4 11.85 11.1
 9 -15 -4 116.65 9.86
 10 -15 -4 6.25 11.83
 11 -15 -4 169.16 12.05
 10 -16 -4 130.79 10.88
 9 -16 -4 7.16 12.13
 8 -16 -4 80.81 8.4
 7 -16 -4 -1.92 11.54
 6 -16 -4 87.66 8.78
 5 -16 -4 36.65 12.35
 4 -16 -4 27.16 12.03
 3 -16 -4 88.74 8.83
 2 -16 -4 14.18 12.24
 1 -16 -4 191.25 13.03
 0 -16 -4 -4.04 13.14
 2 -17 -4 11.87 13.02
 3 -17 -4 18.81 12.74
 4 -17 -4 1.19 12.01
 5 -17 -4 26.09 12.65
 6 -17 -4 -0.41 12.04
 7 -17 -4 12.05 12.62
 8 -17 -4 18.9 13.03
 9 -17 -4 15.84 13.16
 6 -17 -5 4.79 12.78
 5 -17 -5 5.44 12.8
 2 -16 -5 -0.28 12.36
 3 -16 -5 0.38 12.22
 4 -16 -5 3.13 11.84
 5 -16 -5 3.37 11.87
 6 -16 -5 34.45 6.16
 7 -16 -5 -4.07 12.82
 8 -16 -5 85.39 8.44
 9 -16 -5 -1.05 12.6
 11 -15 -5 198.77 13.12
 10 -15 -5 -0.66 12.61
 9 -15 -5 75.99 8.46
 8 -15 -5 9.11 11.62
 7 -15 -5 57.42 7.4
 6 -15 -5 26.89 11.81
 5 -15 -5 24.3 11.6
 4 -15 -5 24.86 11.79
 3 -15 -5 1.92 11.19
 2 -15 -5 48.7 6.87
 1 -15 -5 4.6 12.46
 0 -15 -5 84.37 9.82
 -2 -14 -5 9.76 12.7
 -1 -14 -5 17.99 12.66
 0 -14 -5 89.49 9.26
 1 -14 -5 96.77 9.65
 2 -14 -5 12.34 11.01
 3 -14 -5 139.62 10.21
 4 -14 -5 49.89 6.81
 5 -14 -5 142.84 9.96
 6 -14 -5 5.35 10.04
 7 -14 -5 17.59 10.9
 8 -14 -5 24.12 11.14
 9 -14 -5 64.47 7.7
 10 -14 -5 185.76 12.25
 11 -14 -5 35.67 13.34
 12 -13 -5 83.48 9.35
 11 -13 -5 33.11 12.5
 10 -13 -5 115.69 9.44
 9 -13 -5 7.83 10.78
 8 -13 -5 88.15 7.79
 7 -13 -5 2.17 9.55
 6 -13 -5 110.26 8.58
 5 -13 -5 143.56 9.7
 4 -13 -5 133.67 9.61
 3 -13 -5 224.04 11.89
 2 -13 -5 45.44 6.49
 1 -13 -5 220.88 12.37
 0 -13 -5 14.9 11.61
 -1 -13 -5 36.32 12.31
 -2 -13 -5 -0.31 11.72
 -3 -13 -5 23.77 13.29
 -4 -12 -5 13.16 13
 -3 -12 -5 3.22 11.71
 -2 -12 -5 3.61 10.93
 -1 -12 -5 8.48 10.67
 0 -12 -5 353.83 14.97
 1 -12 -5 -4.35 9.93
 2 -12 -5 310.09 13.24
 3 -12 -5 -1.05 9.43
 4 -12 -5 739.48 20.09
 5 -12 -5 133.95 9.2
 6 -12 -5 112.83 8.42
 7 -12 -5 53.6 6.2
 8 -12 -5 62 6.79
 9 -12 -5 81.83 7.7
 10 -12 -5 8.09 10.68
 11 -12 -5 21 11.58
 12 -12 -5 3.87 12.02
 13 -12 -5 182.44 12.58
 13 -11 -5 1.97 12.31
 12 -11 -5 194.6 12.34
 11 -11 -5 1.99 10.34
 10 -11 -5 122.4 9.03
 9 -11 -5 31.02 5.04
 8 -11 -5 67.78 6.93
 7 -11 -5 366.19 13.91
 6 -11 -5 3.74 8.36
 5 -11 -5 786.15 19.71
 4 -11 -5 4.48 8.74
 3 -11 -5 587.41 17.08
 2 -11 -5 26.16 9.21
 1 -11 -5 179.34 9.96
 0 -11 -5 21.98 9.76
 -1 -11 -5 110.28 8.69
 -2 -11 -5 37.88 5.44
 -3 -11 -5 -0.58 10.7
 -4 -11 -5 8.91 12.07
 -5 -11 -5 -0.1 12.61
 -5 -10 -5 37.16 12.94
 -4 -10 -5 7.07 10.97
 -3 -10 -5 5.76 10.2
 -2 -10 -5 7.28 9.66
 -1 -10 -5 147.1 9.35
 0 -10 -5 64.55 6.53
 1 -10 -5 2.3 7.85
 2 -10 -5 246.99 10.77
 3 -10 -5 171.38 9.4
 4 -10 -5 1288.64 23.96
 5 -10 -5 226.45 10.44
 6 -10 -5 540.95 15.81
 7 -10 -5 166.33 9.49
 8 -10 -5 777.73 19.51
 9 -10 -5 28.79 9.61
 10 -10 -5 145.54 9.46
 11 -10 -5 5.69 10.11
 12 -10 -5 44.39 6.42
 13 -10 -5 162.81 11.11
 14 -10 -5 1.41 12.86
 14 -9 -5 51.81 7.45
 13 -9 -5 48.21 6.73
 12 -9 -5 54.52 7.29
 11 -9 -5 151.95 9.91
 10 -9 -5 10.95 9.42
 9 -9 -5 439.29 14.85
 8 -9 -5 206.79 10.57
 7 -9 -5 746.98 18.34
 6 -9 -5 535.96 15.38
 5 -9 -5 210.62 9.72
 4 -9 -5 548.55 15.25
 3 -9 -5 264.73 10.75
 2 -9 -5 620.76 16.01
 1 -9 -5 4.97 7.22
 0 -9 -5 6.87 7.68
 -1 -9 -5 99.26 7.7
 -2 -9 -5 206.79 11.14
 -3 -9 -5 181.34 10.86
 -4 -9 -5 11.88 10.55
 -5 -9 -5 38.04 6.24
 -6 -9 -5 2.19 12.35
 -7 -8 -5 2.35 12.46
 -6 -8 -5 76.97 8.31
 -5 -8 -5 12.15 10.63
 -4 -8 -5 328.8 14.16
 -3 -8 -5 14.61 9.28
 -2 -8 -5 575.32 16.86
 -1 -8 -5 2.43 7.43
 0 -8 -5 5.92 6.92
 1 -8 -5 -0.56 6.77
 2 -8 -5 216.6 9.39
 3 -8 -5 149.85 7.95
 4 -8 -5 419.84 12.62
 5 -8 -5 512.99 14.03
 6 -8 -5 107.78 7.2
 7 -8 -5 940.82 19.91
 8 -8 -5 943.81 20.57
 9 -8 -5 484.64 15.5
 10 -8 -5 191.73 10.3
 11 -8 -5 133.42 9.17
 12 -8 -5 315.17 14.15
 13 -8 -5 11.97 11.5
 14 -8 -5 27.7 13.03
 14 -7 -5 2.8 12.13
 13 -7 -5 84.85 8.37
 12 -7 -5 57.23 6.72
 11 -7 -5 64.39 6.99
 10 -7 -5 866.75 20.74
 9 -7 -5 1.92 7.81
 8 -7 -5 1571.9 25.64
 7 -7 -5 331.19 11.97
 6 -7 -5 1334.09 22.02
 5 -7 -5 127.3 7.18
 4 -7 -5 472.92 12.93
 3 -7 -5 1.23 5.99
 2 -7 -5 585.25 14.58
 1 -7 -5 180.57 8.6
 0 -7 -5 5.01 6.58
 -1 -7 -5 199.39 9.44
 -2 -7 -5 -0.9 7.74
 -3 -7 -5 660.3 18.36
 -4 -7 -5 70.23 7.25
 -5 -7 -5 216.96 11.54
 -6 -7 -5 -3.98 10.99
 -7 -7 -5 40.79 6.53
 -8 -6 -5 -1.64 12.24
 -7 -6 -5 11.18 11.38
 -6 -6 -5 45.13 6.19
 -5 -6 -5 16.33 9.55
 -4 -6 -5 280.88 12.15
 -3 -6 -5 203.78 10.21
 -2 -6 -5 993.33 20.15
 -1 -6 -5 130.19 7.52
 0 -6 -5 1714.84 24.25
 1 -6 -5 30.3 4.8
 2 -6 -5 2642.19 28.83
 3 -6 -5 13.04 5.63
 4 -6 -5 90.57 5.78
 5 -6 -5 64.91 5.31
 6 -6 -5 352.48 11.35
 7 -6 -5 2199.69 28.91
 8 -6 -5 110.12 7.46
 9 -6 -5 716.5 17.84
 10 -6 -5 39.95 5.84
 11 -6 -5 843.96 21.59
 12 -6 -5 33.45 5.44
 13 -6 -5 153.89 10.54
 14 -6 -5 -0.45 12.25
 14 -5 -5 107.06 9.66
 13 -5 -5 75.21 7.97
 12 -5 -5 232.01 12.29
 11 -5 -5 85.33 7.77
 10 -5 -5 989.28 21.75
 9 -5 -5 1626.91 25.98
 8 -5 -5 91.61 6.91
 7 -5 -5 1115.63 19.79
 6 -5 -5 351.57 10.96
 5 -5 -5 841.83 16.06
 4 -5 -5 13.63 5.53
 3 -5 -5 -0.47 5.32
 2 -5 -5 600.47 13.28
 1 -5 -5 1721.62 22.82
 0 -5 -5 1622.39 22.86
 -1 -5 -5 261.14 9.95
 -2 -5 -5 828.85 17.69
 -3 -5 -5 289.47 11.76
 -4 -5 -5 611.49 17.01
 -5 -5 -5 -1.8 8.55
 -6 -5 -5 53.57 6.12
 -7 -5 -5 10.86 10.54
 -8 -5 -5 9.43 11.89
 -9 -5 -5 37.98 14.01
 -9 -4 -5 6.19 12.17
 -8 -4 -5 10.75 11.17
 -7 -4 -5 58.17 6.53
 -6 -4 -5 28.83 4.77
 -5 -4 -5 187.27 10.28
 -4 -4 -5 46.25 5.84
 -3 -4 -5 1346.61 22.67
 -2 -4 -5 109.13 7.01
 -1 -4 -5 2132.06 26.11
 0 -4 -5 349.94 10.59
 1 -4 -5 2720.02 27.4
 2 -4 -5 -2.07 4.8
 3 -4 -5 229.07 8.03
 4 -4 -5 847.88 15.25
 5 -4 -5 44.03 4.46
 6 -4 -5 1161.95 19.05
 7 -4 -5 23.12 3.76
 8 -4 -5 379.58 12.3
 9 -4 -5 66.08 6.36
 10 -4 -5 988.35 21.45
 11 -4 -5 579.86 17.42
 12 -4 -5 217.15 11.69
 13 -4 -5 69.26 8.04
 14 -4 -5 71.9 7.96
 14 -3 -5 59.74 7.99
 13 -3 -5 853.99 23.69
 12 -3 -5 12.26 10.11
 11 -3 -5 640.41 18.3
 10 -3 -5 406.49 13.88
 9 -3 -5 1355.8 23.64
 8 -3 -5 368.64 11.88
 7 -3 -5 121.56 6.86
 6 -3 -5 4.78 5.56
 5 -3 -5 1300.43 18.86
 4 -3 -5 2515.49 25.17
 3 -3 -5 110.35 5.66
 2 -3 -5 2721.76 25.89
 1 -3 -5 62.04 4.64
 0 -3 -5 5114.84 37.26
 -1 -3 -5 44.35 4.7
 -2 -3 -5 1326.02 20.65
 -3 -3 -5 0.04 6.36
 -4 -3 -5 433.58 13.4
 -5 -3 -5 331.21 12.61
 -6 -3 -5 6.69 8.48
 -7 -3 -5 11.98 9.6
 -8 -3 -5 1.85 10.49
 -9 -3 -5 86.36 9.18
 -10 -2 -5 39.26 14
 -9 -2 -5 15.02 11.84
 -8 -2 -5 35.43 5.53
 -7 -2 -5 33.38 5.47
 -6 -2 -5 195.3 10.1
 -5 -2 -5 -3.32 7.64
 -4 -2 -5 58.98 5.34
 -3 -2 -5 524.34 13.47
 -2 -2 -5 127.06 6.59
 -1 -2 -5 980.97 16.49
 0 -2 -5 707.88 13.44
 1 -2 -5 1805.97 20.8
 2 -2 -5 -0.18 4.41
 3 -2 -5 5428.1 35.61
 4 -2 -5 90.37 5.37
 5 -2 -5 2393.58 25.28
 6 -2 -5 138.91 6.9
 7 -2 -5 661.54 14.7
 8 -2 -5 573.34 14.61
 9 -2 -5 88.93 7.03
 10 -2 -5 603.08 16.81
 11 -2 -5 4.2 8.79
 12 -2 -5 520.85 17.42
 13 -2 -5 22.57 11.96
 14 -2 -5 338.98 16.12
 14 -1 -5 -3.26 12.5
 13 -1 -5 514.76 18.66
 12 -1 -5 138.89 9.63
 11 -1 -5 118.86 8.56
 10 -1 -5 158.29 9.12
 9 -1 -5 770.51 18.11
 8 -1 -5 521.01 14.23
 7 -1 -5 244.19 9.3
 6 -1 -5 1436.26 20.21
 5 -1 -5 19.14 3.51
 4 -1 -5 5033.42 34.55
 3 -1 -5 1988.63 21.29
 2 -1 -5 2563.89 23.62
 1 -1 -5 1583.99 18.71
 0 -1 -5 1863.24 20.95
 -1 -1 -5 1520.52 20.14
 -2 -1 -5 95.95 5.71
 -3 -1 -5 9.14 5.65
 -4 -1 -5 229.6 9.41
 -5 -1 -5 348.16 12.1
 -6 -1 -5 90.91 7.34
 -7 -1 -5 16.9 9.32
 -8 -1 -5 73.87 7.36
 -9 -1 -5 35.52 11.88
 -10 -1 -5 67.22 8
 -10 0 -5 -0.34 11.79
 -9 0 -5 117.39 9.69
 -8 0 -5 4.26 9.33
 -7 0 -5 514.78 16.25
 -6 0 -5 274.3 11.54
 -5 0 -5 310.34 11.22
 -4 0 -5 1.94 5.89
 -3 0 -5 161.99 7.41
 -2 0 -5 673.24 13.57
 -1 0 -5 136.97 6.08
 0 0 -5 2093.21 21.72
 1 0 -5 797.26 13.01
 2 0 -5 5923.27 35.36
 3 0 -5 2310.14 22.76
 4 0 -5 3742.58 29.78
 5 0 -5 2692.44 26.28
 6 0 -5 527.59 12.38
 7 0 -5 738.77 15.62
 8 0 -5 49.24 5.42
 9 0 -5 1337.39 23.44
 10 0 -5 3.45 7.8
 11 0 -5 304.03 12.66
 12 0 -5 267.55 13.19
 13 0 -5 209.27 12.76
 14 0 -5 110.37 10.05
 14 1 -5 28.85 13.38
 13 1 -5 32.6 12.49
 12 1 -5 424.95 16.4
 11 1 -5 5.75 9.21
 10 1 -5 55.37 5.79
 9 1 -5 238.64 10.73
 8 1 -5 924.57 18.82
 7 1 -5 2393.03 28.32
 6 1 -5 268.98 9.2
 5 1 -5 1871.59 22.28
 4 1 -5 433.11 10.43
 3 1 -5 5500.3 34.5
 2 1 -5 86.39 4.8
 1 1 -5 571.66 10.96
 0 1 -5 301.99 8.17
 -1 1 -5 378.85 9.54
 -2 1 -5 755.32 14.04
 -3 1 -5 18.38 3.36
 -4 1 -5 244.31 9.23
 -5 1 -5 6.92 6.75
 -6 1 -5 651.5 16.93
 -7 1 -5 22.58 8.81
 -8 1 -5 355.25 14.68
 -9 1 -5 -0.61 10.26
 -10 1 -5 35.99 12.48
 -11 1 -5 16.34 13.37
 -11 2 -5 -1.56 12.41
 -10 2 -5 3.38 10.95
 -9 2 -5 59.92 6.64
 -8 2 -5 79.17 7.42
 -7 2 -5 89.19 7.68
 -6 2 -5 6.93 7.44
 -5 2 -5 492.5 13.86
 -4 2 -5 158.34 7.73
 -3 2 -5 1218.06 18.79
 -2 2 -5 621.77 12.74
 -1 2 -5 514.9 10.9
 0 2 -5 193.09 6.62
 1 2 -5 408.26 9.29
 2 2 -5 764.97 12.8
 3 2 -5 240.68 7.61
 4 2 -5 380.69 9.73
 5 2 -5 30.34 3.5
 6 2 -5 2118.48 25.46
 7 2 -5 13.77 6.8
 8 2 -5 539.46 14.48
 9 2 -5 107.21 7.42
 10 2 -5 82.49 7.05
 11 2 -5 101.88 8.44
 12 2 -5 -3.06 10.96
 13 2 -5 72.63 8.22
 13 3 -5 2.36 11.82
 12 3 -5 87.46 8.42
 11 3 -5 181.48 10.71
 10 3 -5 2.45 8.55
 9 3 -5 501.9 15.39
 8 3 -5 -1.27 7.13
 7 3 -5 2254.28 29.04
 6 3 -5 755.32 15.61
 5 3 -5 641.83 13.58
 4 3 -5 570.53 12.06
 3 3 -5 1251.91 16.95
 2 3 -5 1348.79 17.17
 1 3 -5 11.56 4.1
 0 3 -5 741.98 12.73
 -1 3 -5 114.88 5.52
 -2 3 -5 3941.42 31.85
 -3 3 -5 359.92 10.56
 -4 3 -5 820.95 16.22
 -5 3 -5 561.93 14.27
 -6 3 -5 532.98 14.9
 -7 3 -5 190.58 10.23
 -8 3 -5 13.81 9.44
 -9 3 -5 41.47 5.78
 -10 3 -5 1.16 10.74
 -11 3 -5 19.04 12.57
 -11 4 -5 13.82 12.47
 -10 4 -5 5.92 10.6
 -9 4 -5 33.08 5.39
 -8 4 -5 265.04 12.41
 -7 4 -5 15.64 8.5
 -6 4 -5 662.8 16.33
 -5 4 -5 18.83 6.68
 -4 4 -5 1426.09 21.6
 -3 4 -5 672.57 13.91
 -2 4 -5 903.28 15.31
 -1 4 -5 5.27 4.27
 0 4 -5 231.47 7.51
 1 4 -5 1083.18 15.45
 2 4 -5 43.93 3.76
 3 4 -5 496.43 11.1
 4 4 -5 -4.93 4.94
 5 4 -5 1503.65 21.13
 6 4 -5 820.3 16.74
 7 4 -5 698.91 16.66
 8 4 -5 704.01 17.24
 9 4 -5 364.61 13.66
 10 4 -5 638.09 18.89
 11 4 -5 21.74 10.75
 12 4 -5 91.9 8.62
 13 4 -5 4.33 12.32
 12 5 -5 36.84 12.39
 11 5 -5 150.46 10.89
 10 5 -5 522.59 17.74
 9 5 -5 62.12 6.79
 8 5 -5 559.76 15.94
 7 5 -5 343.42 12.04
 6 5 -5 783.59 16.77
 5 5 -5 -1.23 5.76
 4 5 -5 126.19 6.54
 3 5 -5 189.14 7.28
 2 5 -5 796.32 13.94
 1 5 -5 675.96 12.72
 0 5 -5 111.37 5.48
 -1 5 -5 797.52 13.98
 -2 5 -5 5.36 4.85
 -3 5 -5 1626.37 22.04
 -4 5 -5 22.06 4.49
 -5 5 -5 889.09 18.31
 -6 5 -5 11.38 7.3
 -7 5 -5 30.15 4.51
 -8 5 -5 274.52 12.49
 -9 5 -5 -0.97 9.81
 -10 5 -5 26.4 11.59
 -11 5 -5 -0.39 11.6
 -11 6 -5 35.1 12.68
 -10 6 -5 9.35 11.15
 -9 6 -5 154.44 10.02
 -8 6 -5 1.08 8.45
 -7 6 -5 1.02 7.74
 -6 6 -5 93.98 6.62
 -5 6 -5 21.45 4.02
 -4 6 -5 1380.66 21.52
 -3 6 -5 30.59 4.19
 -2 6 -5 1408.77 19.79
 -1 6 -5 84.43 5.23
 0 6 -5 3010.66 27.77
 1 6 -5 186.5 7.32
 2 6 -5 483.55 11.44
 3 6 -5 20.11 3.3
 4 6 -5 111.86 6.62
 5 6 -5 890.56 17.39
 6 6 -5 118.69 7.36
 7 6 -5 674.2 16.93
 8 6 -5 18.73 8.52
 9 6 -5 540.1 16.97
 10 6 -5 50.14 6.82
 11 6 -5 213.75 12.81
 12 6 -5 0.47 12.15
 12 7 -5 125 10.26
 11 7 -5 -0.38 11.88
 10 7 -5 563.25 18.95
 9 7 -5 5.68 9.53
 8 7 -5 208.26 10.67
 7 7 -5 92.02 6.89
 6 7 -5 154.04 8.4
 5 7 -5 210.42 9.55
 4 7 -5 65.48 5.74
 3 7 -5 767.44 15.35
 2 7 -5 115 6.3
 1 7 -5 1561.17 21.05
 0 7 -5 394.03 10.74
 -1 7 -5 2915.67 28.88
 -2 7 -5 60.24 4.79
 -3 7 -5 545.78 13.24
 -4 7 -5 425.75 12.29
 -5 7 -5 86.03 6.4
 -6 7 -5 125.65 8.18
 -7 7 -5 11.03 7.89
 -8 7 -5 25.02 9.05
 -9 7 -5 74.83 7.41
 -10 7 -5 27.38 11.63
 -11 7 -5 41.95 6.97
 -11 8 -5 5.62 11.87
 -10 8 -5 98.83 9.03
 -9 8 -5 40.52 5.91
 -8 8 -5 30.68 4.83
 -7 8 -5 100.27 7.55
 -6 8 -5 240.31 10.8
 -5 8 -5 306.67 11.09
 -4 8 -5 -0.34 6.11
 -3 8 -5 193.46 8.42
 -2 8 -5 251.86 9.14
 -1 8 -5 936.3 16.91
 0 8 -5 1570.08 21.83
 1 8 -5 908.07 16.65
 2 8 -5 1692.14 22.97
 3 8 -5 899.35 17.37
 4 8 -5 1091.63 20.15
 5 8 -5 -0.53 7
 6 8 -5 378.25 12.97
 7 8 -5 -0.99 8.44
 8 8 -5 231.76 11.47
 9 8 -5 202.45 11.49
 10 8 -5 6.93 11.42
 11 8 -5 108.48 9.87
 11 9 -5 51.31 7.41
 10 9 -5 31.5 12.45
 9 9 -5 23.4 10.97
 8 9 -5 1.3 9.39
 7 9 -5 77.8 7.04
 6 9 -5 79.33 7.11
 5 9 -5 718.29 17.4
 4 9 -5 188.06 9.39
 3 9 -5 737.07 16.57
 2 9 -5 944.72 18.24
 1 9 -5 161.99 7.93
 0 9 -5 1635.51 22.98
 -1 9 -5 331.95 10.91
 -2 9 -5 163.42 7.86
 -3 9 -5 2.09 6.08
 -4 9 -5 119.28 7.31
 -5 9 -5 34.86 4.79
 -6 9 -5 -4.86 7.9
 -7 9 -5 395.09 14.43
 -8 9 -5 -1.28 9.07
 -9 9 -5 192.75 11.58
 -10 9 -5 2.15 10.77
 -11 9 -5 125.81 10.29
 -11 10 -5 24.87 12.58
 -10 10 -5 82.09 8.63
 -9 10 -5 0.61 10.16
 -8 10 -5 312.46 13.53
 -7 10 -5 13.38 8.9
 -6 10 -5 466.35 14.85
 -5 10 -5 2.26 7.12
 -4 10 -5 74.67 6.04
 -3 10 -5 3.07 6.56
 -2 10 -5 39.18 4.79
 -1 10 -5 901.08 17.98
 0 10 -5 290.08 10.64
 1 10 -5 112.47 6.97
 2 10 -5 5.67 6.88
 3 10 -5 929.41 19.52
 4 10 -5 19.38 8.17
 5 10 -5 254.05 11.3
 6 10 -5 -4.53 8.73
 7 10 -5 11.64 9.59
 8 10 -5 32.4 5.81
 9 10 -5 6.04 11.19
 10 10 -5 25.97 13.07
 9 11 -5 15.91 11.94
 8 11 -5 19.91 11.47
 7 11 -5 5.47 10.23
 6 11 -5 150.43 9.76
 5 11 -5 18.81 9.11
 4 11 -5 573.81 16.65
 3 11 -5 7.44 8.13
 2 11 -5 865.8 19.21
 1 11 -5 3.02 6.83
 0 11 -5 52.37 5.7
 -1 11 -5 94.2 6.97
 -2 11 -5 25.63 4.56
 -3 11 -5 138.48 7.98
 -4 11 -5 93.97 6.96
 -5 11 -5 61.53 5.95
 -6 11 -5 109.42 8.11
 -7 11 -5 364.75 14.72
 -8 11 -5 56.57 6.67
 -9 11 -5 115.74 9.46
 -10 11 -5 3.81 11.57
 -11 11 -5 5.18 12.4
 -11 12 -5 27.72 13.09
 -10 12 -5 9.44 11.49
 -9 12 -5 98.91 8.87
 -8 12 -5 30.65 10.73
 -7 12 -5 185.09 10.83
 -6 12 -5 27.63 9.37
 -5 12 -5 64.46 6.36
 -4 12 -5 52.2 5.43
 -3 12 -5 209.35 10.03
 -2 12 -5 92.12 7
 -1 12 -5 2.21 7.29
 0 12 -5 21.87 7.73
 1 12 -5 183.08 9.31
 2 12 -5 185.79 9.75
 3 12 -5 499.49 15.57
 4 12 -5 80.71 7.29
 5 12 -5 178.29 10.47
 6 12 -5 26.86 10.92
 7 12 -5 158.57 10.86
 8 12 -5 0.1 11.75
 -9 -12 5 17.28 12.96
 -8 -13 5 45.36 7.12
 -7 -13 5 72.5 8.36
 6 13 -5 142.86 10.58
 5 13 -5 277.98 13.46
 4 13 -5 78.24 7.69
 3 13 -5 169.66 10.24
 2 13 -5 49.03 6.01
 1 13 -5 163.36 9.18
 0 13 -5 -0.27 7.79
 -1 13 -5 57.18 6.04
 -2 13 -5 76.71 6.8
 -3 13 -5 122.81 8.2
 -4 13 -5 454.36 15.24
 -5 13 -5 19.61 9.25
 -6 13 -5 219.69 11.57
 -7 13 -5 -2.06 9.87
 -8 13 -5 191.37 11.43
 -9 13 -5 -3.2 11.39
 -10 13 -5 34.73 12.74
 -10 14 -5 1.93 12.18
 -9 14 -5 16.19 11.82
 -8 14 -5 3.55 10.98
 -7 14 -5 148.64 10.39
 -6 14 -5 15.82 9.9
 -5 14 -5 391.84 14.92
 -4 14 -5 -2.9 9.58
 -3 14 -5 435.14 15.28
 -2 14 -5 -4.13 8.7
 -1 14 -5 30.24 4.85
 0 14 -5 8.82 8.65
 1 14 -5 13.96 9.26
 2 14 -5 45.55 6.18
 3 14 -5 3.39 9.44
 4 14 -5 196.25 11.4
 5 14 -5 -3.24 11.03
 -6 -14 5 129.1 10.51
 -7 -14 5 16.54 13.24
 -6 -15 5 -2.4 12.9
 -5 -15 5 21.67 12.14
 4 15 -5 14.07 11.16
 3 15 -5 0.27 10.32
 2 15 -5 19.68 10.38
 1 15 -5 0.86 9.5
 0 15 -5 141.19 9.43
 -1 15 -5 24.84 9.85
 -2 15 -5 211.58 11.23
 -3 15 -5 19.62 9.9
 -4 15 -5 463.82 16.6
 -5 15 -5 33.01 6.14
 -6 15 -5 178.47 11.06
 -7 15 -5 21.05 11.31
 -8 15 -5 28.25 12.01
 -9 15 -5 6.53 11.96
 -10 15 -5 1.1 12.61
 -9 16 -5 2.43 12.23
 -8 16 -5 21.29 12.38
 -7 16 -5 16.81 11.73
 -6 16 -5 47.6 6.9
 -5 16 -5 138.43 10.34
 -4 16 -5 78.15 8.13
 -3 16 -5 163.57 10.81
 -2 16 -5 65.73 7.49
 -1 16 -5 64.82 7.26
 0 16 -5 8.5 10.11
 1 16 -5 82.91 8.27
 2 16 -5 -5.62 10.88
 -3 -16 5 4.21 11.15
 -4 -16 5 16.25 12.1
 -5 -16 5 11.21 12.45
 -4 -17 5 34.62 13.71
 -3 -17 5 -2.23 12.2
 -2 -17 5 13.83 11.89
 -1 -17 5 33.41 12.49
 0 17 -5 90.41 8.82
 -1 17 -5 140.29 10.69
 -2 17 -5 33.17 11.71
 -3 17 -5 111.79 9.36
 -4 17 -5 25.39 11.52
 -5 17 -5 38.36 7.11
 -6 17 -5 -2.99 11.7
 -7 17 -5 17.58 12.27
 -8 17 -5 4.61 12.16
 -7 18 -5 7.58 12.54
 -6 18 -5 4.4 12.3
 -5 18 -5 -0.11 12.02
 -4 18 -5 49.55 6.97
 -3 18 -5 -3.9 11.62
 -2 18 -5 85.56 8.67
 -1 18 -5 18.47 12
 0 -18 5 51.75 7.2
 -1 -18 5 8.6 12.55
 -2 -18 5 16.39 12.97
 0 -19 5 0.22 12.74
 1 -19 5 13.73 12.94
 2 -19 5 2 12.2
 -3 19 -5 5.45 12.24
 -4 19 -5 12.09 12.57
 -5 19 -5 4 12.43
 -4 19 -6 3.3 12.98
 -3 19 -6 9.82 13
 -2 19 -6 3.45 12.64
 -1 19 -6 19.34 13.26
 2 18 -6 12.96 13.03
 1 18 -6 6.46 12.49
 0 18 -6 71.87 8.54
 -1 18 -6 3.6 12.16
 -2 18 -6 72.41 8.57
 -3 18 -6 0.67 12.07
 -4 18 -6 50.77 7.47
 -5 18 -6 -5.36 12.65
 -6 18 -6 8.34 12.78
 -7 17 -6 11.95 12.58
 -6 17 -6 -4.83 12.35
 -5 17 -6 45.86 6.66
 -4 17 -6 12.43 11.54
 -3 17 -6 89.73 8.85
 -2 17 -6 2.94 11.46
 -1 17 -6 41.08 6.68
 0 17 -6 27.56 11.89
 1 17 -6 31.26 12.38
 2 17 -6 4.73 11.77
 3 17 -6 1.52 12.05
 4 17 -6 39.41 13.87
 5 16 -6 15.11 13.24
 4 16 -6 8.29 12.13
 3 16 -6 17.8 11.73
 2 16 -6 -2.23 11.11
 1 16 -6 47.12 6.38
 0 16 -6 5.33 10.32
 -1 16 -6 21.74 10.68
 -2 16 -6 26.07 10.98
 -3 16 -6 54.07 7.32
 -4 16 -6 78.47 7.96
 -5 16 -6 30.29 11.79
 -6 16 -6 20.68 11.93
 -7 16 -6 9.1 11.97
 -8 16 -6 11.98 12.82
 -9 15 -6 18 13.09
 -8 15 -6 16.14 12.18
 -7 15 -6 16.1 11.99
 -6 15 -6 40.76 6.18
 -5 15 -6 16.84 10.7
 -4 15 -6 96.78 8.36
 -3 15 -6 32.05 10.75
 -2 15 -6 53.74 6.36
 -1 15 -6 -1.1 9.58
 0 15 -6 16.72 9.99
 1 15 -6 18.9 10.17
 2 15 -6 7.3 10.22
 3 15 -6 32.39 11.52
 4 15 -6 6.81 11.24
 5 15 -6 41 6.9
 6 15 -6 -9.31 12.93
 7 14 -6 33.82 13.43
 6 14 -6 96.87 9.46
 5 14 -6 -0.19 11.11
 4 14 -6 228.61 12.36
 3 14 -6 7.92 10.05
 2 14 -6 266.1 12.67
 1 14 -6 0 9.2
 0 14 -6 27.4 9.68
 -1 14 -6 4.18 8.84
 -2 14 -6 0.08 8.73
 -3 14 -6 40.5 5.51
 -4 14 -6 2.81 9.22
 -5 14 -6 28.01 5.2
 -6 14 -6 -2 10.35
 -7 14 -6 96.41 8.67
 -8 14 -6 9.09 11.78
 -9 14 -6 21.02 12.88
 -10 13 -6 8.28 12.88
 -9 13 -6 -0.85 12.19
 -8 13 -6 92.1 8.72
 -7 13 -6 -8.91 10.73
 -6 13 -6 79.31 7.57
 -5 13 -6 19.76 9.68
 -4 13 -6 7.31 8.89
 -3 13 -6 24.87 8.89
 -2 13 -6 -2.7 8.49
 -1 13 -6 137.75 8.76
 0 13 -6 -2.98 8.52
 1 13 -6 254.05 11.55
 2 13 -6 162.42 9.35
 3 13 -6 473.37 16.46
 4 13 -6 84.66 7.85
 5 13 -6 191.55 11.46
 6 13 -6 22.18 11.42
 7 13 -6 15.26 11.63
 8 13 -6 23.31 13.41
 9 12 -6 3.98 12.58
 8 12 -6 2.74 11.85
 7 12 -6 22.77 11.28
 6 12 -6 41.37 6.07
 5 12 -6 143.67 9.46
 4 12 -6 91.64 7.98
 3 12 -6 392.81 14.35
 2 12 -6 199.35 10.01
 1 12 -6 70.11 6.67
 0 12 -6 97.69 7.21
 -1 12 -6 28.77 5.21
 -2 12 -6 35.29 5.02
 -3 12 -6 3.76 7.84
 -4 12 -6 93.4 7.36
 -5 12 -6 3.8 8.89
 -6 12 -6 9.44 9.39
 -7 12 -6 188.66 11.63
 -8 12 -6 9.81 10.76
 -9 12 -6 34.71 12.54
 -10 12 -6 -1.78 12.74
 -10 11 -6 6.18 12.36
 -9 11 -6 39.16 6.72
 -8 11 -6 8.3 10.48
 -7 11 -6 116.66 8.58
 -6 11 -6 85.32 7.58
 -5 11 -6 84.79 7.21
 -4 11 -6 5.12 7.89
 -3 11 -6 167.84 9.11
 -2 11 -6 319.27 12.07
 -1 11 -6 561.8 15.69
 0 11 -6 121.49 7.82
 1 11 -6 267.07 11.07
 2 11 -6 439.72 14.16
 3 11 -6 385.19 13.65
 4 11 -6 370.13 13.64
 5 11 -6 6.84 9.12
 6 11 -6 122.21 8.87
 7 11 -6 5.88 10.16
 8 11 -6 17.78 11.52
 9 11 -6 54.61 7.58
 10 10 -6 116.25 10.4
 9 10 -6 -1.5 11.54
 8 10 -6 63.69 7.46
 7 10 -6 51.8 6.27
 6 10 -6 2.34 8.78
 5 10 -6 173.02 9.73
 4 10 -6 5.5 7.85
 3 10 -6 737.07 17.76
 2 10 -6 45.12 5.53
 1 10 -6 872.04 18.72
 0 10 -6 128.3 7.86
 -1 10 -6 2448.24 31.47
 -2 10 -6 4.43 7.02
 -3 10 -6 221.38 9.68
 -4 10 -6 165.95 9.06
 -5 10 -6 6.36 8.06
 -6 10 -6 154.53 9.41
 -7 10 -6 1.8 9.15
 -8 10 -6 54.82 6.81
 -9 10 -6 -3.24 11.16
 -10 10 -6 50.22 7.91
 -11 9 -6 42.08 7.49
 -10 9 -6 -1.06 11.87
 -9 9 -6 77.7 7.7
 -8 9 -6 0.81 9.76
 -7 9 -6 10.36 9.36
 -6 9 -6 35.72 4.88
 -5 9 -6 12.23 8.04
 -4 9 -6 340.81 12.42
 -3 9 -6 6.76 6.97
 -2 9 -6 548.1 14.61
 -1 9 -6 396.22 12.67
 0 9 -6 1738.54 25.09
 1 9 -6 518.4 13.84
 2 9 -6 308.98 11.09
 3 9 -6 343.95 11.95
 4 9 -6 107.01 7.34
 5 9 -6 498.46 15.31
 6 9 -6 10.49 8.61
 7 9 -6 201.95 10.72
 8 9 -6 2.52 9.99
 9 9 -6 131.41 9.81
 10 9 -6 52.39 7.57
 11 9 -6 105.27 9.87
 11 8 -6 102.98 9.83
 10 8 -6 107.41 9.75
 9 8 -6 170.04 10.86
 8 8 -6 319.94 13.81
 7 8 -6 52.89 6.16
 6 8 -6 216.04 10.35
 5 8 -6 2.32 7.26
 4 8 -6 107.25 7.24
 3 8 -6 655.69 15.59
 2 8 -6 405.26 12.13
 1 8 -6 1048.23 18.95
 0 8 -6 684.3 15.37
 -1 8 -6 1702.57 24.07
 -2 8 -6 73.22 5.96
 -3 8 -6 611.38 15.44
 -4 8 -6 46.29 5.67
 -5 8 -6 174.98 9.03
 -6 8 -6 -1.06 7.93
 -7 8 -6 6.52 8.81
 -8 8 -6 14.84 9.85
 -9 8 -6 -4.71 10.91
 -10 8 -6 60.06 7.81
 -11 8 -6 -0.39 12.68
 -11 7 -6 26.07 13.41
 -10 7 -6 4.97 11.88
 -9 7 -6 45.38 6.72
 -8 7 -6 29.47 5.48
 -7 7 -6 -0.13 8.52
 -6 7 -6 74.27 6.44
 -5 7 -6 103.58 7.37
 -4 7 -6 561.13 15.4
 -3 7 -6 526.11 14.05
 -2 7 -6 550.65 13.93
 -1 7 -6 465.21 12.52
 0 7 -6 902.75 16.83
 1 7 -6 974.39 17.58
 2 7 -6 147.54 7.37
 3 7 -6 80.6 5.62
 4 7 -6 24.23 4.07
 5 7 -6 14.86 7.09
 6 7 -6 394.86 13.27
 7 7 -6 32.45 5.05
 8 7 -6 256.21 12.09
 9 7 -6 98 8.43
 10 7 -6 482.34 17.95
 11 7 -6 7.78 11.88
 12 7 -6 48.33 7.1
 12 6 -6 2.87 12.27
 11 6 -6 188.78 11.98
 10 6 -6 3.2 10.3
 9 6 -6 518.43 17.05
 8 6 -6 3.5 8.48
 7 6 -6 807.68 18.95
 6 6 -6 2.04 7.02
 5 6 -6 478.89 13.5
 4 6 -6 27.75 3.98
 3 6 -6 207.83 8.35
 2 6 -6 154.25 7.24
 1 6 -6 -0.42 5.22
 0 6 -6 318.63 9.91
 -1 6 -6 384 10.92
 -2 6 -6 1044.3 18.47
 -3 6 -6 165.94 8.34
 -4 6 -6 1160.27 21.54
 -5 6 -6 403.42 13.63
 -6 6 -6 450.92 14.78
 -7 6 -6 37.67 5.31
 -8 6 -6 8.93 9.59
 -9 6 -6 51.17 6.7
 -10 6 -6 -1.05 11.55
 -11 6 -6 4.04 12.77
 -11 5 -6 -2.1 12.8
 -10 5 -6 3.87 11.41
 -9 5 -6 12.46 10.69
 -8 5 -6 114.38 8.83
 -7 5 -6 96.36 8.08
 -6 5 -6 -1.08 8.16
 -5 5 -6 604.32 15.85
 -4 5 -6 25.09 4.35
 -3 5 -6 1615.46 23.66
 -2 5 -6 2.06 5.66
 -1 5 -6 608.56 13.52
 0 5 -6 32.97 3.68
 1 5 -6 630.5 13.31
 2 5 -6 295.78 9.31
 3 5 -6 17.37 3.28
 4 5 -6 714.09 15.12
 5 5 -6 4.66 6.31
 6 5 -6 1713.51 25.51
 7 5 -6 158.62 8.82
 8 5 -6 555.99 16.27
 9 5 -6 57.15 6.29
 10 5 -6 341.08 14.57
 11 5 -6 109.16 9.3
 12 5 -6 -0.4 12.04
 13 4 -6 12.87 12.81
 12 4 -6 65.45 7.98
 11 4 -6 -0.41 10.29
 10 4 -6 161.46 9.86
 9 4 -6 343.75 13.44
 8 4 -6 635.82 17.08
 7 4 -6 1206.61 22.25
 6 4 -6 796.47 17.02
 5 4 -6 1274.45 20.22
 4 4 -6 301.32 9.68
 3 4 -6 1363.5 19.67
 2 4 -6 73.75 5.1
 1 4 -6 236.18 8.19
 0 4 -6 14.86 5.07
 -1 4 -6 275.59 9
 -2 4 -6 810.18 15.97
 -3 4 -6 238.24 9.4
 -4 4 -6 540.96 14.6
 -5 4 -6 4.08 7.39
 -6 4 -6 342.89 13.23
 -7 4 -6 1.05 8.63
 -8 4 -6 252.75 12.78
 -9 4 -6 -10.93 10.97
 -10 4 -6 1.48 11.73
 -10 3 -6 5.46 11.84
 -9 3 -6 13.05 11.24
 -8 3 -6 22.61 10.53
 -7 3 -6 228.25 11.71
 -6 3 -6 693.74 18.64
 -5 3 -6 435.24 13.56
 -4 3 -6 154.75 7.98
 -3 3 -6 222.89 9.11
 -2 3 -6 1188.44 19.09
 -1 3 -6 39.66 3.98
 0 3 -6 310.6 9.17
 1 3 -6 2.55 4.48
 2 3 -6 1122.73 17.05
 3 3 -6 358.87 10.31
 4 3 -6 349.55 10.27
 5 3 -6 989.74 17.64
 6 3 -6 941.64 18.1
 7 3 -6 1137.01 21.16
 8 3 -6 -0.4 7.75
 9 3 -6 449.55 14.86
 10 3 -6 20.23 9.57
 11 3 -6 76.36 7.85
 12 3 -6 138.89 10.63
 13 3 -6 4.2 12.29
 13 2 -6 212.53 13.11
 12 2 -6 12.46 11.07
 11 2 -6 35.7 5.62
 10 2 -6 27.12 4.58
 9 2 -6 53.81 5.84
 8 2 -6 337.15 12.32
 7 2 -6 85.53 6.68
 6 2 -6 1999.78 25.89
 5 2 -6 113.06 6.45
 4 2 -6 1803.14 22.76
 3 2 -6 1462.2 19.75
 2 2 -6 1222.46 17.65
 1 2 -6 428.98 10.68
 0 2 -6 125.26 6.02
 -1 2 -6 375.74 10.51
 -2 2 -6 7.61 5.67
 -3 2 -6 159.75 7.78
 -4 2 -6 4.14 6.47
 -5 2 -6 590.75 16.18
 -6 2 -6 26.71 9.07
 -7 2 -6 86.38 8.12
 -8 2 -6 37.21 5.77
 -9 2 -6 39.5 6.55
 -10 2 -6 -0.48 12.37
 -10 1 -6 51.23 8.2
 -9 1 -6 -0.84 11.26
 -8 1 -6 120.03 9.45
 -7 1 -6 75.83 7.79
 -6 1 -6 555.51 16.94
 -5 1 -6 2.92 7.35
 -4 1 -6 242.29 9.79
 -3 1 -6 22.16 3.43
 -2 1 -6 451.24 12.22
 -1 1 -6 356.63 10.37
 0 1 -6 2.73 4.72
 1 1 -6 936.47 15.46
 2 1 -6 62.13 4.59
 3 1 -6 6889.96 42.56
 4 1 -6 296.09 9.58
 5 1 -6 1990.78 25.03
 6 1 -6 125.8 6.98
 7 1 -6 1406.37 22.43
 8 1 -6 618.74 16.1
 9 1 -6 258.2 11.26
 10 1 -6 121.35 8.42
 11 1 -6 20.29 9.73
 12 1 -6 463.43 17.04
 13 1 -6 -7.44 12.16
 14 1 -6 105.67 10.14
 14 0 -6 140.62 11.23
 13 0 -6 332.33 15.75
 12 0 -6 31.89 11.27
 11 0 -6 158.19 10.01
 10 0 -6 95.03 7.45
 9 0 -6 1998.57 29.64
 8 0 -6 42.29 5.2
 7 0 -6 305.56 10.88
 6 0 -6 376.17 11.24
 5 0 -6 1606.21 21.8
 4 0 -6 1447.08 20.12
 3 0 -6 873.9 15.24
 2 0 -6 1090.45 16.85
 1 0 -6 27.55 3.4
 0 0 -6 1786.49 22.5
 -1 0 -6 15.85 5.72
 -2 0 -6 613.73 14.24
 -3 0 -6 33.51 4.24
 -4 0 -6 98.99 6.97
 -5 0 -6 411.18 13.9
 -6 0 -6 3.08 8.43
 -7 0 -6 176.92 10.62
 -8 0 -6 4.65 10.44
 -9 0 -6 151.94 11.33
 -10 0 -6 -7.46 13.42
 -9 -1 -6 19.12 12.46
 -8 -1 -6 12.74 10.87
 -7 -1 -6 13.75 9.79
 -6 -1 -6 92.32 7.85
 -5 -1 -6 23.64 8.6
 -4 -1 -6 -1.65 7.26
 -3 -1 -6 201.44 9.1
 -2 -1 -6 36.1 4.3
 -1 -1 -6 1617.24 22.54
 0 -1 -6 963.25 16.8
 1 -1 -6 773.65 14.78
 2 -1 -6 434.67 10.9
 3 -1 -6 1463.85 19.88
 4 -1 -6 933.77 16.2
 5 -1 -6 147.69 7.05
 6 -1 -6 518.26 13.02
 7 -1 -6 40.74 4.77
 8 -1 -6 73.54 6.43
 9 -1 -6 651.48 16.97
 10 -1 -6 42.82 5.55
 11 -1 -6 214.95 11.25
 12 -1 -6 116.12 9.44
 13 -1 -6 218.76 13.01
 14 -1 -6 -1.16 12.84
 14 -2 -6 179.67 12.08
 13 -2 -6 31.13 12.16
 12 -2 -6 436.39 16.28
 11 -2 -6 1.63 9.22
 10 -2 -6 696.02 18.71
 9 -2 -6 112.66 7.73
 8 -2 -6 22.21 7.59
 7 -2 -6 8 6.53
 6 -2 -6 32.9 4.51
 5 -2 -6 1252.28 19.69
 4 -2 -6 43.55 4.64
 3 -2 -6 57.55 4.68
 2 -2 -6 343 10.07
 1 -2 -6 1850.83 23.3
 0 -2 -6 1010.74 17.94
 -1 -2 -6 710.34 15.43
 -2 -2 -6 677.75 15.54
 -3 -2 -6 98.26 6.88
 -4 -2 -6 267.4 11.32
 -5 -2 -6 13.63 8.54
 -6 -2 -6 59.38 6.3
 -7 -2 -6 -2.43 10.06
 -8 -2 -6 19.65 11.51
 -9 -2 -6 31.06 13.67
 -9 -3 -6 22.41 14.02
 -8 -3 -6 -0.46 11.45
 -7 -3 -6 19.76 11
 -6 -3 -6 7.27 9.59
 -5 -3 -6 138.1 9.34
 -4 -3 -6 183.61 10
 -3 -3 -6 55.67 5.83
 -2 -3 -6 486.66 13.8
 -1 -3 -6 359.48 11.48
 0 -3 -6 2247.53 27.29
 1 -3 -6 57.78 5.17
 2 -3 -6 682.77 14.34
 3 -3 -6 41.77 4.02
 4 -3 -6 115.55 6.36
 5 -3 -6 570.68 13.49
 6 -3 -6 1.43 6.22
 7 -3 -6 602.28 14.87
 8 -3 -6 155.99 8.46
 9 -3 -6 932.18 20.19
 10 -3 -6 11.18 8.81
 11 -3 -6 846.56 21.28
 12 -3 -6 40.75 6.03
 13 -3 -6 275.44 13.98
 14 -3 -6 14.52 12.41
 14 -4 -6 35.08 13.31
 13 -4 -6 33.58 6.09
 12 -4 -6 78.05 7.82
 11 -4 -6 271.63 12.7
 10 -4 -6 1049.37 22.73
 9 -4 -6 5.23 8.02
 8 -4 -6 1660.45 25.96
 7 -4 -6 435.93 13.26
 6 -4 -6 1537.99 23.3
 5 -4 -6 2.84 5.88
 4 -4 -6 140.42 7.15
 3 -4 -6 4.54 5.65
 2 -4 -6 608.41 14.17
 1 -4 -6 2196.72 27.33
 0 -4 -6 8.77 6.77
 -1 -4 -6 410.17 12.86
 -2 -4 -6 4.55 7.08
 -3 -4 -6 530.5 16.02
 -4 -4 -6 11 8.7
 -5 -4 -6 189.16 10.84
 -6 -4 -6 0.92 9.91
 -7 -4 -6 34.75 6.19
 -8 -4 -6 13.93 12.28
 -8 -5 -6 3.21 12.58
 -7 -5 -6 -6.28 11.76
 -6 -5 -6 30.14 11.23
 -5 -5 -6 6.4 9.54
 -4 -5 -6 451.25 15.66
 -3 -5 -6 74.99 6.98
 -2 -5 -6 228.9 10.6
 -1 -5 -6 5.55 6.88
 0 -5 -6 0.61 6.39
 1 -5 -6 781.44 16.72
 2 -5 -6 77.23 6.05
 3 -5 -6 65.52 5.3
 4 -5 -6 113.29 6.92
 5 -5 -6 800.27 16.68
 6 -5 -6 299.42 10.96
 7 -5 -6 725.64 16.87
 8 -5 -6 578.05 15.74
 9 -5 -6 448.69 14.57
 10 -5 -6 272.08 12.07
 11 -5 -6 123.51 9.08
 12 -5 -6 391.26 15.67
 13 -5 -6 -3.91 11.46
 14 -5 -6 134.86 10.64
 14 -6 -6 44.07 7.33
 13 -6 -6 19.1 12.09
 12 -6 -6 149.9 10.44
 11 -6 -6 375.1 15.03
 10 -6 -6 88.85 7.45
 9 -6 -6 449.56 14.8
 8 -6 -6 81.14 6.9
 7 -6 -6 2084 28.97
 6 -6 -6 445.65 13.36
 5 -6 -6 375.09 11.92
 4 -6 -6 466.83 13.22
 3 -6 -6 367.2 11.59
 2 -6 -6 491.12 13.62
 1 -6 -6 35.47 4.52
 0 -6 -6 14.91 7.14
 -1 -6 -6 -0.41 7.2
 -2 -6 -6 622.86 17.31
 -3 -6 -6 155.86 10.11
 -4 -6 -6 51.58 6.81
 -5 -6 -6 17.3 10.5
 -6 -6 -6 11.04 11.35
 -7 -6 -6 18.31 12.76
 -7 -7 -6 21.22 13.64
 -6 -7 -6 14.33 12.01
 -5 -7 -6 46.44 6.76
 -4 -7 -6 26.47 10.69
 -3 -7 -6 254.87 12.18
 -2 -7 -6 -0.27 8.84
 -1 -7 -6 181.28 9.59
 0 -7 -6 -0.4 7.05
 1 -7 -6 28.11 4.22
 2 -7 -6 98.08 6.78
 3 -7 -6 9.39 6.94
 4 -7 -6 1272.53 22.29
 5 -7 -6 53.25 5.45
 6 -7 -6 929.04 19.57
 7 -7 -6 28.71 5.37
 8 -7 -6 1450.85 25.7
 9 -7 -6 50.33 5.98
 10 -7 -6 382.14 14.49
 11 -7 -6 23.49 10.16
 12 -7 -6 9.34 10.84
 13 -7 -6 74.11 8.21
 14 -7 -6 3.08 12.43
 14 -8 -6 40.66 6.81
 13 -8 -6 5.43 11.79
 12 -8 -6 397 16.32
 11 -8 -6 24.66 10.43
 10 -8 -6 131.39 9.24
 9 -8 -6 79.11 7.25
 8 -8 -6 309.29 12.62
 7 -8 -6 1021.59 21.53
 6 -8 -6 1.56 7.75
 5 -8 -6 661.31 16.86
 4 -8 -6 74.64 6.65
 3 -8 -6 639.4 16.51
 2 -8 -6 1.67 7.28
 1 -8 -6 130.35 7.89
 0 -8 -6 -0.96 7.84
 -1 -8 -6 44.06 5.5
 -2 -8 -6 187.64 10.62
 -3 -8 -6 9.07 9.78
 -4 -8 -6 60.22 7.05
 -5 -8 -6 0.67 11.6
 -6 -8 -6 105.36 10.23
 -5 -9 -6 35.99 13.35
 -4 -9 -6 5.92 11.3
 -3 -9 -6 23.33 10.87
 -2 -9 -6 16.67 10.03
 -1 -9 -6 7.34 9.61
 0 -9 -6 221.25 10.99
 1 -9 -6 24.21 8.79
 2 -9 -6 416.01 14.03
 3 -9 -6 144.17 8.73
 4 -9 -6 1153.29 23.02
 5 -9 -6 278.52 11.78
 6 -9 -6 939.17 20.72
 7 -9 -6 246.33 11.49
 8 -9 -6 288.94 12.42
 9 -9 -6 317.95 13.1
 10 -9 -6 3 9.36
 11 -9 -6 65.03 7.12
 12 -9 -6 90.7 8.36
 13 -9 -6 157.22 11.2
 13 -10 -6 140.44 11.07
 12 -10 -6 25.83 12.23
 11 -10 -6 32.94 11.36
 10 -10 -6 6.56 10.15
 9 -10 -6 43.94 5.96
 8 -10 -6 216.97 11.06
 7 -10 -6 47.31 6.05
 6 -10 -6 207.3 10.63
 5 -10 -6 106.22 7.98
 4 -10 -6 784.26 20
 3 -10 -6 458.76 15.36
 2 -10 -6 138.92 8.9
 1 -10 -6 194.63 10.39
 0 -10 -6 122.32 8.95
 -1 -10 -6 115.58 8.9
 -2 -10 -6 -0.18 10.29
 -3 -10 -6 6.6 11.1
 -4 -10 -6 -2.08 11.82
 -4 -11 -6 7.24 12.93
 -3 -11 -6 5.37 11.91
 -2 -11 -6 1.87 10.88
 -1 -11 -6 97.41 9.03
 0 -11 -6 58.74 7.36
 1 -11 -6 256.16 12.64
 2 -11 -6 26.21 4.79
 3 -11 -6 450.7 16.33
 4 -11 -6 58.31 6.88
 5 -11 -6 253.84 12.15
 6 -11 -6 0.91 8.77
 7 -11 -6 43.1 5.53
 8 -11 -6 1.34 9.36
 9 -11 -6 17.18 10.46
 10 -11 -6 89.94 8.25
 11 -11 -6 -0.83 11.23
 12 -11 -6 63.2 7.83
 13 -11 -6 1.74 13.12
 12 -12 -6 3.73 12.33
 11 -12 -6 280.35 14.41
 10 -12 -6 1.88 11.24
 9 -12 -6 175.03 11.4
 8 -12 -6 14.47 10.17
 7 -12 -6 39.94 5.38
 6 -12 -6 39.53 5.58
 5 -12 -6 26.63 10.26
 4 -12 -6 441.33 16.26
 3 -12 -6 -2.36 10.17
 2 -12 -6 145.97 10.07
 1 -12 -6 3.23 10.67
 0 -12 -6 251.69 13.5
 -1 -12 -6 1.36 11.55
 -2 -12 -6 4.85 11.86
 -3 -12 -6 9.02 13.07
 -1 -13 -6 55.71 7.48
 0 -13 -6 5.36 11.84
 1 -13 -6 184.89 12.33
 2 -13 -6 32.65 5.56
 3 -13 -6 72.08 7.62
 4 -13 -6 18.19 11.14
 5 -13 -6 26.13 11.01
 6 -13 -6 44.86 6.23
 7 -13 -6 19.62 10.87
 8 -13 -6 48.06 6.28
 9 -13 -6 19.71 11.91
 10 -13 -6 185.47 12.02
 11 -13 -6 221.44 13.94
 12 -13 -6 121.29 10.47
 11 -14 -6 34.06 14.28
 10 -14 -6 121.96 10.67
 9 -14 -6 36.87 6.41
 8 -14 -6 26.28 12.21
 7 -14 -6 24.44 12.33
 6 -14 -6 3.49 11.29
 5 -14 -6 40.29 6.26
 4 -14 -6 4.5 10.81
 3 -14 -6 6.66 11.56
 2 -14 -6 3.77 11.55
 1 -14 -6 35.8 13.23
 0 -14 -6 51.81 7.76
 2 -15 -6 22.59 13.13
 3 -15 -6 -2.73 12.15
 4 -15 -6 -0.19 11.93
 5 -15 -6 13.37 11.97
 6 -15 -6 18.26 12.18
 7 -15 -6 150.73 11.31
 8 -15 -6 6.23 12.09
 9 -15 -6 33.03 13.65
 7 -16 -6 3.76 12.77
 6 -16 -6 25.24 13.74
 5 -16 -6 4.25 12.42
 4 -16 -6 1.87 12.74
 7 -15 -7 38 7.14
 6 -15 -7 28.61 13.64
 5 -15 -7 12.86 13.04
 2 -14 -7 12.69 12.9
 3 -14 -7 10.19 12.42
 4 -14 -7 2.18 11.79
 5 -14 -7 28.01 12.64
 6 -14 -7 9.94 12.39
 7 -14 -7 48.53 7.41
 8 -14 -7 15.63 12.64
 9 -14 -7 41.18 6.87
 11 -13 -7 91.63 10.41
 10 -13 -7 142.33 11.59
 9 -13 -7 7.93 12.19
 8 -13 -7 178.94 11.8
 7 -13 -7 25.5 12.4
 6 -13 -7 64.61 7.59
 5 -13 -7 -1.86 11.2
 4 -13 -7 6.35 10.95
 3 -13 -7 -0.97 11.51
 2 -13 -7 2.89 11.71
 1 -13 -7 75.5 8.95
 0 -13 -7 -2.36 13.07
 -1 -12 -7 8.09 12.62
 0 -12 -7 108.59 9.8
 1 -12 -7 12.86 11.92
 2 -12 -7 41.57 7.06
 3 -12 -7 2.16 10.77
 4 -12 -7 8.39 10.45
 5 -12 -7 33.11 11.31
 6 -12 -7 6.55 10.57
 7 -12 -7 125.14 9.58
 8 -12 -7 -2.82 11.37
 9 -12 -7 179.73 11.81
 10 -12 -7 16.88 12.64
 11 -12 -7 489.68 19.96
 12 -11 -7 84.99 9.64
 11 -11 -7 7.73 12.25
 10 -11 -7 334.01 15.49
 9 -11 -7 31.02 11.56
 8 -11 -7 21.65 10.85
 7 -11 -7 2.77 10.07
 6 -11 -7 14.49 9.98
 5 -11 -7 168.95 10.58
 4 -11 -7 14.01 10.13
 3 -11 -7 91.12 8.44
 2 -11 -7 2.87 10.13
 1 -11 -7 117.87 9.94
 0 -11 -7 126.35 10.3
 -1 -11 -7 32.32 12.36
 -2 -11 -7 5.7 12.21
 -3 -10 -7 6.33 12.43
 -2 -10 -7 -4.24 11.36
 -1 -10 -7 76.43 8.04
 0 -10 -7 38.36 6.39
 1 -10 -7 138.94 9.7
 2 -10 -7 39.9 5.76
 3 -10 -7 286.69 13.27
 4 -10 -7 44.41 6.24
 5 -10 -7 81.69 7.64
 6 -10 -7 52.32 5.94
 7 -10 -7 -4.53 9.53
 8 -10 -7 63.75 7.02
 9 -10 -7 36.05 5.65
 10 -10 -7 75.54 7.91
 11 -10 -7 48.2 6.91
 12 -10 -7 81.05 8.78
 13 -10 -7 83.67 9.33
 13 -9 -7 159.65 11.71
 12 -9 -7 0.36 11.59
 11 -9 -7 27.84 11.37
 10 -9 -7 9.45 10.37
 9 -9 -7 103.94 8.53
 8 -9 -7 46.52 5.96
 7 -9 -7 22.29 9.24
 6 -9 -7 71.35 6.92
 5 -9 -7 83.8 7.34
 4 -9 -7 838.79 21.16
 3 -9 -7 2.41 8.9
 2 -9 -7 252.59 12.07
 1 -9 -7 -0.06 9.28
 0 -9 -7 310.54 13.63
 -1 -9 -7 -2 10.28
 -2 -9 -7 -0.16 10.86
 -3 -9 -7 9.64 11.56
 -4 -9 -7 7.59 12.52
 -5 -8 -7 -0.22 12.76
 -4 -8 -7 13.94 12.16
 -3 -8 -7 0.64 10.56
 -2 -8 -7 27.24 10.55
 -1 -8 -7 58.77 6.74
 0 -8 -7 28.86 9.69
 1 -8 -7 50.62 6.03
 2 -8 -7 84.35 7.06
 3 -8 -7 657.56 17.78
 4 -8 -7 5.76 8.52
 5 -8 -7 622.47 17.61
 6 -8 -7 4.2 8.37
 7 -8 -7 360.07 13.6
 8 -8 -7 53.49 6.19
 9 -8 -7 8.13 9.4
 10 -8 -7 77.26 7.28
 11 -8 -7 1.76 10.35
 12 -8 -7 198.18 12.16
 13 -8 -7 -1.2 12.52
 13 -7 -7 147.39 11.05
 12 -7 -7 50.83 6.87
 11 -7 -7 25.62 10.71
 10 -7 -7 74.12 7.25
 9 -7 -7 56.54 6.31
 8 -7 -7 660.48 18.5
 7 -7 -7 94.82 7.51
 6 -7 -7 489.41 15.12
 5 -7 -7 108.9 7.51
 4 -7 -7 1045.72 21.39
 3 -7 -7 123.17 8.16
 2 -7 -7 120.14 8.12
 1 -7 -7 71.12 6.17
 0 -7 -7 2.46 8.2
 -1 -7 -7 146.87 9.59
 -2 -7 -7 8 9.61
 -3 -7 -7 22.55 10.71
 -4 -7 -7 -0.27 11.34
 -5 -7 -7 63.38 8.56
 -6 -6 -7 12.23 12.67
 -5 -6 -7 16.27 11.86
 -4 -6 -7 30.14 11.24
 -3 -6 -7 54.53 6.84
 -2 -6 -7 191.18 10.75
 -1 -6 -7 59.71 6.36
 0 -6 -7 161.2 8.88
 1 -6 -7 1.15 7.28
 2 -6 -7 860.85 19.12
 3 -6 -7 329.76 12.27
 4 -6 -7 466.37 14.08
 5 -6 -7 89.01 6.53
 6 -6 -7 570.6 15.93
 7 -6 -7 490.06 15.12
 8 -6 -7 116.25 8.37
 9 -6 -7 341.21 13.47
 10 -6 -7 35.55 5.51
 11 -6 -7 139.19 9.92
 12 -6 -7 59.03 7.19
 13 -6 -7 30.57 12.69
 14 -6 -7 55.95 7.17
 14 -5 -7 30.57 13.64
 13 -5 -7 2.93 11.7
 12 -5 -7 354.1 15.1
 11 -5 -7 86.35 8.03
 10 -5 -7 218.88 11.49
 9 -5 -7 329.77 13.14
 8 -5 -7 451.98 15.05
 7 -5 -7 781.74 18.55
 6 -5 -7 11.27 7.56
 5 -5 -7 438.61 13.5
 4 -5 -7 -0.95 6.94
 3 -5 -7 371.5 12.31
 2 -5 -7 156.44 8.34
 1 -5 -7 127.73 7.64
 0 -5 -7 20.63 7.71
 -1 -5 -7 29.72 4.6
 -2 -5 -7 495.19 16.27
 -3 -5 -7 14.76 9.68
 -4 -5 -7 94.74 8.61
 -5 -5 -7 10.12 11.03
 -6 -5 -7 20.97 12.33
 -7 -5 -7 -6.06 13.73
 -7 -4 -7 16.42 12.76
 -6 -4 -7 -0.23 11.01
 -5 -4 -7 78.74 7.66
 -4 -4 -7 41.14 6.14
 -3 -4 -7 516.08 16.93
 -2 -4 -7 -0.99 8.27
 -1 -4 -7 116.59 7.49
 0 -4 -7 25.27 4
 1 -4 -7 13.62 6.94
 2 -4 -7 140.03 7.79
 3 -4 -7 85.53 6.3
 4 -4 -7 984.93 19.11
 5 -4 -7 178.33 9.06
 6 -4 -7 1779.61 26.5
 7 -4 -7 231.06 10.73
 8 -4 -7 1778.05 28.31
 9 -4 -7 1.47 8.32
 10 -4 -7 940.19 22.34
 11 -4 -7 99.09 8.76
 12 -4 -7 45.79 6.37
 13 -4 -7 58.77 7.3
 14 -4 -7 6.33 12.65
 14 -3 -7 13.3 12.8
 13 -3 -7 154.53 11.04
 12 -3 -7 40.51 6.16
 11 -3 -7 571.12 18.4
 10 -3 -7 1.94 9.07
 9 -3 -7 892.81 20.77
 8 -3 -7 22.32 4.49
 7 -3 -7 2266.09 31.04
 6 -3 -7 27.29 4.56
 5 -3 -7 412.4 12.68
 4 -3 -7 88.61 6.1
 3 -3 -7 84.03 5.95
 2 -3 -7 1252.91 21.15
 1 -3 -7 204.36 9.25
 0 -3 -7 569.55 15.19
 -1 -3 -7 0.38 6.87
 -2 -3 -7 753.22 18.65
 -3 -3 -7 81.44 7.34
 -4 -3 -7 165.91 10.38
 -5 -3 -7 26.32 10.4
 -6 -3 -7 13.53 10.9
 -7 -3 -7 4.34 11.63
 -8 -3 -7 1.81 12.67
 -8 -2 -7 -2.28 12.36
 -7 -2 -7 0.76 11.16
 -6 -2 -7 13.4 10.32
 -5 -2 -7 5.65 9.31
 -4 -2 -7 314.35 13.26
 -3 -2 -7 474.21 15.12
 -2 -2 -7 208.44 9.96
 -1 -2 -7 344.34 11.94
 0 -2 -7 785.56 17.07
 1 -2 -7 1823.4 25.78
 2 -2 -7 911.73 17.71
 3 -2 -7 148.96 7.49
 4 -2 -7 83.42 5.86
 5 -2 -7 205.45 9.06
 6 -2 -7 244.52 9.98
 7 -2 -7 194.54 9.58
 8 -2 -7 267.58 11.09
 9 -2 -7 394.23 13.8
 10 -2 -7 1081.02 23.73
 11 -2 -7 13.21 10.38
 12 -2 -7 387.84 16.03
 13 -2 -7 36.9 6.26
 14 -2 -7 180.38 12.41
 14 -1 -7 14.57 13.5
 13 -1 -7 136.6 10.5
 12 -1 -7 117.8 9.61
 11 -1 -7 346.7 14.52
 10 -1 -7 336.59 13.71
 9 -1 -7 20.17 8.59
 8 -1 -7 175.56 9.2
 7 -1 -7 5.88 6.81
 6 -1 -7 493.87 13.57
 5 -1 -7 57.64 5.57
 4 -1 -7 491.74 13.19
 3 -1 -7 84.14 5.78
 2 -1 -7 21.1 3.59
 1 -1 -7 1607.65 23.45
 0 -1 -7 195.49 8.9
 -1 -1 -7 683.84 16.09
 -2 -1 -7 64.28 5.86
 -3 -1 -7 320.94 12.19
 -4 -1 -7 0.98 8.18
 -5 -1 -7 98.63 7.89
 -6 -1 -7 12.63 9.82
 -7 -1 -7 8.04 10.74
 -8 -1 -7 1.11 11.9
 -9 0 -7 47.38 7.87
 -8 0 -7 1.57 11.42
 -7 0 -7 38.95 6.22
 -6 0 -7 2.39 9.36
 -5 0 -7 78.01 7.35
 -4 0 -7 34.48 4.94
 -3 0 -7 -0.37 7.11
 -2 0 -7 363.05 12.08
 -1 0 -7 6.52 6.91
 0 0 -7 2366.77 29.01
 1 0 -7 116.77 6.89
 2 0 -7 882.77 16.82
 3 0 -7 45.95 4.5
 4 0 -7 1143.67 19.27
 5 0 -7 571.05 14.22
 6 0 -7 53.61 5.19
 7 0 -7 22.52 3.94
 8 0 -7 20.49 7.82
 9 0 -7 332.53 13.04
 10 0 -7 197.91 10.92
 11 0 -7 269.89 12.75
 12 0 -7 40.71 6.24
 13 0 -7 325.96 15.81
 13 1 -7 2.42 11.96
 12 1 -7 383.91 16.23
 11 1 -7 -2.79 10.01
 10 1 -7 467.1 16.16
 9 1 -7 9.49 8.49
 8 1 -7 542.99 15.52
 7 1 -7 104.2 7.22
 6 1 -7 39.99 5.03
 5 1 -7 1233.4 20.7
 4 1 -7 -0.04 6.05
 3 1 -7 1928.18 24.84
 2 1 -7 4.16 5.55
 1 1 -7 1217.15 19.83
 0 1 -7 109.52 6.61
 -1 1 -7 719.68 15.98
 -2 1 -7 101.88 6.82
 -3 1 -7 20.69 7.31
 -4 1 -7 6.17 7.75
 -5 1 -7 16.93 8.7
 -6 1 -7 116.61 8.68
 -7 1 -7 21.02 10.69
 -8 1 -7 36.63 6.13
 -9 1 -7 13.21 13.02
 -9 2 -7 22.58 12.83
 -8 2 -7 38.83 6.38
 -7 2 -7 31.31 5.61
 -6 2 -7 87 8.03
 -5 2 -7 80.37 7.2
 -4 2 -7 -1.79 7.3
 -3 2 -7 49.82 4.91
 -2 2 -7 11.92 6.8
 -1 2 -7 285.21 10.13
 0 2 -7 425.96 11.93
 1 2 -7 74.83 5.37
 2 2 -7 1056.03 18.05
 3 2 -7 966.56 17.52
 4 2 -7 1724.12 23.82
 5 2 -7 2.94 6.13
 6 2 -7 645 15.76
 7 2 -7 102.81 7.39
 8 2 -7 180.6 9.38
 9 2 -7 293.42 12.49
 10 2 -7 36.51 5.29
 11 2 -7 100.04 8.4
 12 2 -7 45.55 7.2
 13 2 -7 202.84 12.96
 13 3 -7 64.27 8.1
 12 3 -7 146.38 11.2
 11 3 -7 62.85 6.87
 10 3 -7 -0.34 9.21
 9 3 -7 320.93 13.18
 8 3 -7 -0.47 8.26
 7 3 -7 134.94 8.06
 6 3 -7 643.59 15.95
 5 3 -7 1000.71 18.95
 4 3 -7 1341.14 21.06
 3 3 -7 1256.39 20.26
 2 3 -7 1881.27 24.6
 1 3 -7 55.81 4.8
 0 3 -7 624.16 14.19
 -1 3 -7 0.3 5.9
 -2 3 -7 518.49 13.88
 -3 3 -7 42.11 4.98
 -4 3 -7 101.28 7.04
 -5 3 -7 150.75 9.22
 -6 3 -7 100.89 8.37
 -7 3 -7 136.84 9.95
 -8 3 -7 8.98 10.93
 -9 3 -7 45.67 6.92
 -10 4 -7 9.89 13
 -9 4 -7 -1.46 11.65
 -8 4 -7 127.66 10
 -7 4 -7 4.45 9.57
 -6 4 -7 341.39 14.31
 -5 4 -7 -0.84 8.16
 -4 4 -7 88.23 6.68
 -3 4 -7 8.96 6.92
 -2 4 -7 164.45 8.25
 -1 4 -7 71.88 5.39
 0 4 -7 -2.16 5.86
 1 4 -7 775.39 15.74
 2 4 -7 36.8 4.44
 3 4 -7 2808.84 30.94
 4 4 -7 221.95 9.31
 5 4 -7 1494.98 23.44
 6 4 -7 148.21 8.41
 7 4 -7 1128.58 22.42
 8 4 -7 481.34 15.59
 9 4 -7 289.87 12.87
 10 4 -7 14.75 9.74
 11 4 -7 2.12 10.62
 12 4 -7 164.4 11.74
 13 4 -7 12.83 13.17
 12 5 -7 0.94 12.03
 11 5 -7 40.1 5.94
 10 5 -7 104.03 8.53
 9 5 -7 9.01 9.21
 8 5 -7 472.86 15.39
 7 5 -7 -1.49 8.22
 6 5 -7 1746.98 26.68
 5 5 -7 1.88 7.01
 4 5 -7 710.75 15.94
 3 5 -7 10.64 6.31
 2 5 -7 1363.92 21.26
 1 5 -7 32.15 3.92
 0 5 -7 196.65 8.33
 -1 5 -7 57.04 5.08
 -2 5 -7 8.47 6.56
 -3 5 -7 125.25 7.77
 -4 5 -7 59.72 5.7
 -5 5 -7 220.01 10.78
 -6 5 -7 1.74 8.95
 -7 5 -7 59.34 7.44
 -8 5 -7 29.57 5.53
 -9 5 -7 28.85 12.49
 -10 5 -7 2.43 12.43
 -10 6 -7 4.18 12.65
 -9 6 -7 12.7 11.73
 -8 6 -7 12.67 10.99
 -7 6 -7 15.16 10.3
 -6 6 -7 292.73 12.7
 -5 6 -7 129.41 8.56
 -4 6 -7 220.4 10.12
 -3 6 -7 89.78 7.03
 -2 6 -7 875.92 18.42
 -1 6 -7 5.67 6.29
 0 6 -7 185.41 8.22
 1 6 -7 202.38 8.7
 2 6 -7 15.93 6.47
 3 6 -7 609.61 14.99
 4 6 -7 9.68 6.64
 5 6 -7 810.52 18.1
 6 6 -7 119.15 8.01
 7 6 -7 785.02 19.41
 8 6 -7 -1.04 9
 9 6 -7 326.49 14.08
 10 6 -7 1.01 10.35
 11 6 -7 48.2 7.24
 12 6 -7 39.41 13.63
 11 7 -7 -3.88 12.37
 10 7 -7 327.92 14.83
 9 7 -7 113.95 9.19
 8 7 -7 399.97 14.92
 7 7 -7 216.54 11.2
 6 7 -7 623.53 17.19
 5 7 -7 311.14 11.93
 4 7 -7 26.2 4.08
 3 7 -7 26.2 4.12
 2 7 -7 26.59 4.1
 1 7 -7 -0.29 6.52
 0 7 -7 54.88 5.2
 -1 7 -7 11.85 6.89
 -2 7 -7 645.88 15.97
 -3 7 -7 345.97 12.26
 -4 7 -7 515.64 15.52
 -5 7 -7 19.77 8.52
 -6 7 -7 173.66 10.07
 -7 7 -7 3.68 9.73
 -8 7 -7 54.48 7.08
 -9 7 -7 -0.34 11.33
 -10 7 -7 0.32 12.36
 -10 8 -7 7.63 12.43
 -9 8 -7 -1.29 11.52
 -8 8 -7 29.41 11.41
 -7 8 -7 1.49 9.69
 -6 8 -7 -0.6 9.07
 -5 8 -7 281.62 12.44
 -4 8 -7 -2.42 8.2
 -3 8 -7 602.09 16.45
 -2 8 -7 10.46 7.36
 -1 8 -7 176.76 8.8
 0 8 -7 14.32 7.11
 1 8 -7 223.25 9.87
 2 8 -7 38.4 4.93
 3 8 -7 138.99 7.78
 4 8 -7 112.71 7.52
 5 8 -7 4.38 7.69
 6 8 -7 293.85 12.21
 7 8 -7 145.1 9.41
 8 8 -7 266.16 12.72
 9 8 -7 108.07 8.93
 10 8 -7 131.2 10.75
 11 8 -7 51.29 7.38
 10 9 -7 19.83 12.7
 9 9 -7 147.25 10.73
 8 9 -7 3.32 9.86
 7 9 -7 198.31 11
 6 9 -7 36.45 5.28
 5 9 -7 268.31 11.66
 4 9 -7 5.82 7.83
 3 9 -7 60.64 5.89
 2 9 -7 233.37 10.1
 1 9 -7 117.95 7.6
 0 9 -7 294.32 11.25
 -1 9 -7 30.28 4.39
 -2 9 -7 103.67 7.41
 -3 9 -7 -4.67 7.99
 -4 9 -7 220.62 10.61
 -5 9 -7 10.23 8.98
 -6 9 -7 5.96 9.04
 -7 9 -7 3.44 9.64
 -8 9 -7 6.55 10.72
 -9 9 -7 30.27 12.47
 -10 9 -7 3.54 12.81
 -10 10 -7 13.15 13.21
 -9 10 -7 22.29 12.47
 -8 10 -7 5.53 11.11
 -7 10 -7 -2.29 9.92
 -6 10 -7 43.37 5.79
 -5 10 -7 52.4 5.87
 -4 10 -7 64.29 6.6
 -3 10 -7 46.57 5.22
 -2 10 -7 11.24 7.79
 -1 10 -7 303.92 11.84
 0 10 -7 142.67 8.57
 1 10 -7 188.93 9.55
 2 10 -7 -0.75 7.42
 3 10 -7 101.82 7.25
 4 10 -7 17.82 8.61
 5 10 -7 6.7 8.95
 6 10 -7 97.78 7.91
 7 10 -7 28.18 5.19
 8 10 -7 58.75 6.93
 9 10 -7 1.84 11.54
 10 10 -7 129.51 10.78
 9 11 -7 46.25 7.54
 8 11 -7 39.8 6.4
 7 11 -7 4.36 10.52
 6 11 -7 54.83 6.84
 5 11 -7 3.26 9.16
 4 11 -7 88.11 7.49
 3 11 -7 98.46 7.65
 2 11 -7 200.53 10.22
 1 11 -7 234.44 10.88
 0 11 -7 218.44 10.5
 -1 11 -7 453.6 14.87
 -2 11 -7 20.86 8.35
 -3 11 -7 81.93 6.98
 -4 11 -7 -0.41 8.68
 -5 11 -7 101.92 8.19
 -6 11 -7 7.69 9.85
 -7 11 -7 70.67 7.3
 -8 11 -7 6.52 11.34
 -9 11 -7 5.76 12.52
 -9 12 -7 35.74 13.46
 -8 12 -7 8.42 11.65
 -7 12 -7 75.65 7.87
 -6 12 -7 3.14 10.06
 -5 12 -7 23.87 9.87
 -4 12 -7 9.88 9.22
 -3 12 -7 29.77 4.76
 -2 12 -7 115.56 8.34
 -1 12 -7 40.3 5.97
 0 12 -7 418.83 14.38
 1 12 -7 39.25 5.53
 2 12 -7 283.75 12.37
 3 12 -7 53.1 6.43
 4 12 -7 66.45 6.82
 5 12 -7 61.72 6.79
 6 12 -7 28.8 10.95
 7 12 -7 20.65 11.68
 8 12 -7 0.81 11.95
 8 13 -7 4.68 12.87
 7 13 -7 12.02 12.38
 6 13 -7 4.29 10.99
 5 13 -7 193.47 11.48
 4 13 -7 6.85 10.41
 3 13 -7 327.93 14.12
 2 13 -7 -1.1 9.7
 1 13 -7 108.16 8.32
 0 13 -7 25.84 9.7
 -1 13 -7 412.73 14.95
 -2 13 -7 5.32 8.91
 -3 13 -7 15.51 9.45
 -4 13 -7 42.6 5.8
 -5 13 -7 -0.6 10.07
 -6 13 -7 35.57 6.09
 -7 13 -7 -9.99 11.49
 -8 13 -7 48.21 7.63
 -9 13 -7 3.64 12.49
 -8 14 -7 5.21 12.43
 -7 14 -7 51.86 7.26
 -6 14 -7 13.72 11.19
 -5 14 -7 29.51 5.33
 -4 14 -7 0.29 9.76
 -3 14 -7 45.52 5.94
 -2 14 -7 3.93 9.5
 -1 14 -7 21.66 9.92
 0 14 -7 5.68 9.44
 1 14 -7 2.32 9.44
 2 14 -7 235.68 12.49
 3 14 -7 -6.95 10.55
 4 14 -7 190.67 11.69
 5 14 -7 -7.84 11.76
 6 14 -7 54.82 7.58
 7 14 -7 9.69 12.96
 6 15 -7 -9.2 13.25
 5 15 -7 53.75 7.54
 4 15 -7 2.27 11.35
 3 15 -7 100.13 8.9
 2 15 -7 5.53 10.65
 1 15 -7 16.08 10.93
 0 15 -7 1.1 9.9
 -1 15 -7 -3.12 9.95
 -2 15 -7 8.1 10.09
 -3 15 -7 18.15 10.9
 -4 15 -7 31.63 11.42
 -5 15 -7 19.23 11.36
 -6 15 -7 14 11.58
 -7 15 -7 38.65 13.14
 -8 15 -7 12.03 13.17
 -7 16 -7 1.43 12.82
 -6 16 -7 24.51 12.4
 -5 16 -7 24.44 12.06
 -4 16 -7 40.5 6.32
 -3 16 -7 15.91 11.52
 -2 16 -7 9.99 11.02
 -1 16 -7 14.39 10.77
 0 16 -7 0.29 10.68
 1 16 -7 28.08 11.91
 2 16 -7 5.09 11.61
 3 16 -7 24.96 12.47
 4 16 -7 15.57 12.79
 5 16 -7 16.01 13.78
 3 17 -7 3.44 12.41
 2 17 -7 7.25 12.36
 1 17 -7 -0.33 11.91
 0 17 -7 6.94 11.49
 -1 17 -7 33.25 12.3
 -2 17 -7 -3.87 11.72
 -3 17 -7 87.87 8.73
 -4 17 -7 -0.92 12.37
 -5 17 -7 53.27 7.69
 -6 17 -7 -1.05 12.78
 -4 18 -7 49.91 7.89
 -3 18 -7 -0.09 12.44
 -2 18 -7 42.37 7.61
 -1 18 -7 3.29 12.12
 0 18 -7 21.33 13.19
 1 18 -7 0.11 12.68
 -4 17 -8 2.92 12.53
 -3 17 -8 13.49 12.68
 -2 17 -8 -5.5 12.43
 -1 17 -8 2.95 12.04
 0 17 -8 4.81 12.25
 1 17 -8 -4.32 12.65
 2 17 -8 64.43 8.67
 4 16 -8 14.57 13.13
 3 16 -8 66.57 8.35
 2 16 -8 14.48 12.5
 1 16 -8 15.93 12.01
 0 16 -8 0.05 11.22
 -1 16 -8 13.87 11.62
 -2 16 -8 2.59 11.22
 -3 16 -8 4.96 11.42
 -4 16 -8 13.49 12.32
 -5 16 -8 7.78 12.13
 -6 16 -8 19.36 13.38
 -6 15 -8 -2.4 12.4
 -5 15 -8 8.32 11.97
 -4 15 -8 4.68 11.24
 -3 15 -8 4.5 10.9
 -2 15 -8 4.44 11
 -1 15 -8 1.38 10.89
 0 15 -8 2.56 11.06
 1 15 -8 17.18 11.06
 2 15 -8 12.37 11.61
 3 15 -8 32.76 12.94
 4 15 -8 13.05 12.34
 5 15 -8 25.41 13.36
 6 14 -8 32.25 13.13
 5 14 -8 4.96 11.92
 4 14 -8 109.01 9.92
 3 14 -8 13.82 11.67
 2 14 -8 194.49 11.85
 1 14 -8 13.61 10.67
 0 14 -8 88.86 8.55
 -1 14 -8 74.47 7.95
 -2 14 -8 70.16 7.65
 -3 14 -8 2.25 10.46
 -4 14 -8 -0.77 10.78
 -5 14 -8 5.96 11.23
 -6 14 -8 11.81 12.22
 -7 14 -8 19.74 13.09
 -8 13 -8 7.49 12.97
 -7 13 -8 -1.68 11.88
 -6 13 -8 31.8 11.85
 -5 13 -8 2.75 10.56
 -4 13 -8 16.68 10.55
 -3 13 -8 17.99 10.2
 -2 13 -8 5.12 9.78
 -1 13 -8 427.97 16.24
 0 13 -8 -0.13 9.85
 1 13 -8 315.14 13.91
 2 13 -8 -2.93 10.26
 3 13 -8 255.46 12.94
 4 13 -8 -5.61 11.18
 5 13 -8 46.99 6.79
 6 13 -8 -0.15 11.7
 7 13 -8 10.11 12.47
 8 12 -8 1.5 12.29
 7 12 -8 27.97 12.45
 6 12 -8 -3.91 11.26
 5 12 -8 41.5 5.97
 4 12 -8 4.09 9.8
 3 12 -8 14.38 9.91
 2 12 -8 139.48 9.53
 1 12 -8 21.05 9.66
 0 12 -8 270.74 12.38
 -1 12 -8 46.42 6.36
 -2 12 -8 65.87 6.87
 -3 12 -8 2.85 9.2
 -4 12 -8 41.96 5.83
 -5 12 -8 5.5 10.14
 -6 12 -8 3.31 10.78
 -7 12 -8 3.77 11.5
 -8 12 -8 -4.69 12.35
 -8 11 -8 2.85 12.3
 -7 11 -8 -0.52 11.27
 -6 11 -8 -0.23 10.42
 -5 11 -8 22.09 10.21
 -4 11 -8 2.76 9.55
 -3 11 -8 92.18 7.58
 -2 11 -8 51.23 6.08
 -1 11 -8 172.26 9.84
 0 11 -8 121.03 8.49
 1 11 -8 132.38 8.76
 2 11 -8 65.91 6.54
 3 11 -8 75.87 7.04
 4 11 -8 29.67 9.96
 5 11 -8 17.99 10.13
 6 11 -8 38.51 5.72
 7 11 -8 26.32 5.59
 8 11 -8 42.91 6.82
 9 11 -8 60.3 8.21
 9 10 -8 8.92 12.18
 8 10 -8 97.62 9.03
 7 10 -8 11.45 10.8
 6 10 -8 121.89 9.2
 5 10 -8 15.43 9.55
 4 10 -8 -2.32 8.87
 3 10 -8 43.09 5.44
 2 10 -8 -3 8.15
 1 10 -8 140.37 8.78
 0 10 -8 -1.8 8.26
 -1 10 -8 126.81 8.41
 -2 10 -8 74.82 7.24
 -3 10 -8 83.15 7.36
 -4 10 -8 70.59 7.21
 -5 10 -8 5.5 9.59
 -6 10 -8 16.45 10.62
 -7 10 -8 -0.04 10.96
 -8 10 -8 8.32 12.05
 -9 9 -8 9.96 12.79
 -8 9 -8 -1.27 11.73
 -7 9 -8 -0.2 10.82
 -6 9 -8 90.13 8.21
 -5 9 -8 7.14 9.53
 -4 9 -8 201.63 11
 -3 9 -8 3.77 8.64
 -2 9 -8 409.04 14.33
 -1 9 -8 8.41 7.83
 0 9 -8 341.66 12.82
 1 9 -8 52.08 5.75
 2 9 -8 72.8 6.53
 3 9 -8 70.74 6.27
 4 9 -8 47.97 5.66
 5 9 -8 160.4 9.53
 6 9 -8 2.09 9.12
 7 9 -8 224.74 12.06
 8 9 -8 -3.3 11.01
 9 9 -8 201.42 12.63
 10 9 -8 5.23 12.65
 11 8 -8 44.06 7.02
 10 8 -8 103.35 9.46
 9 8 -8 28.59 11.85
 8 8 -8 268.06 13.37
 7 8 -8 22.52 10.13
 6 8 -8 614.49 18.04
 5 8 -8 -0.76 8.42
 4 8 -8 154.03 8.8
 3 8 -8 48.71 5.39
 2 8 -8 261.74 10.95
 1 8 -8 355.1 12.66
 0 8 -8 15.06 7.68
 -1 8 -8 504.3 15
 -2 8 -8 -5.44 8.17
 -3 8 -8 416.52 14.59
 -4 8 -8 3.93 9.01
 -5 8 -8 162.24 10.01
 -6 8 -8 7.47 10.04
 -7 8 -8 23.85 11.41
 -8 8 -8 11.73 12.06
 -9 8 -8 7.2 12.93
 -9 7 -8 0.66 12.38
 -8 7 -8 85.83 9.17
 -7 7 -8 5.31 10.67
 -6 7 -8 231.56 12.5
 -5 7 -8 14.49 9.46
 -4 7 -8 201.88 10.53
 -3 7 -8 78.21 6.97
 -2 7 -8 219.27 10.27
 -1 7 -8 1.53 7.26
 0 7 -8 63.49 5.63
 1 7 -8 111.52 7.44
 2 7 -8 11.4 7.27
 3 7 -8 229.32 10.48
 4 7 -8 116.41 7.81
 5 7 -8 290.19 11.73
 6 7 -8 194.84 10.4
 7 7 -8 251.22 12.27
 8 7 -8 200.39 11.36
 9 7 -8 155.04 10.32
 10 7 -8 51.66 7.18
 11 7 -8 2.26 12.23
 12 6 -8 17.65 13.72
 11 6 -8 16.74 12.3
 10 6 -8 -4.33 11.25
 9 6 -8 116.87 8.97
 8 6 -8 2.21 9.29
 7 6 -8 145.16 9.54
 6 6 -8 232.76 11.06
 5 6 -8 384.96 13.29
 4 6 -8 214.34 10.09
 3 6 -8 245.03 10.27
 2 6 -8 611.62 15.76
 1 6 -8 1.62 6.72
 0 6 -8 65.27 5.63
 -1 6 -8 1 6.9
 -2 6 -8 203.04 9.96
 -3 6 -8 17.95 8.29
 -4 6 -8 83.67 6.98
 -5 6 -8 158.32 10.08
 -6 6 -8 176.95 11.06
 -7 6 -8 45.33 6.75
 -8 6 -8 -3.37 12.41
 -9 6 -8 11.89 13.23
 -9 5 -8 5.04 12.82
 -8 5 -8 33.46 12.73
 -7 5 -8 13.2 11.28
 -6 5 -8 28.18 10.74
 -5 5 -8 75.89 7.33
 -4 5 -8 7.04 8.33
 -3 5 -8 113.58 7.79
 -2 5 -8 -0.04 7.56
 -1 5 -8 60.38 5.63
 0 5 -8 89.53 6.35
 1 5 -8 128.34 7.27
 2 5 -8 678.34 16.41
 3 5 -8 754.42 17.44
 4 5 -8 960.73 19.72
 5 5 -8 50.59 5.97
 6 5 -8 967.72 21.13
 7 5 -8 13.14 8.48
 8 5 -8 145.5 9.48
 9 5 -8 2.52 9.58
 10 5 -8 14.79 10.59
 11 5 -8 7.8 11.71
 12 5 -8 -3.35 13.08
 12 4 -8 216.33 13.22
 11 4 -8 -0.09 10.96
 10 4 -8 49.45 6.66
 9 4 -8 47.19 6.36
 8 4 -8 355.72 13.74
 7 4 -8 293.72 12.22
 6 4 -8 16.49 7.82
 5 4 -8 845.7 18.68
 4 4 -8 -0.04 7.05
 3 4 -8 1405.33 23.36
 2 4 -8 0.07 6.58
 1 4 -8 247.25 10.06
 0 4 -8 1.1 6.6
 -1 4 -8 312.53 11.56
 -2 4 -8 143.43 8.39
 -3 4 -8 13.93 7.93
 -4 4 -8 66.6 6.36
 -5 4 -8 1.17 8.92
 -6 4 -8 120.1 9.33
 -7 4 -8 17.87 11.19
 -8 4 -8 26.66 12.8
 -9 4 -8 0.75 12.91
 -8 3 -8 3.64 11.75
 -7 3 -8 48.39 6.62
 -6 3 -8 -6.99 10.29
 -5 3 -8 72.05 7.25
 -4 3 -8 9.34 8.52
 -3 3 -8 7.22 7.64
 -2 3 -8 264.74 10.95
 -1 3 -8 3.9 7.13
 0 3 -8 729.33 17.02
 1 3 -8 30.13 4.04
 2 3 -8 394.92 12.4
 3 3 -8 19.26 6.97
 4 3 -8 296.91 10.89
 5 3 -8 91.42 6.79
 6 3 -8 97.78 6.98
 7 3 -8 5.43 7.88
 8 3 -8 158.45 9.81
 9 3 -8 397.25 15.06
 10 3 -8 165.36 10.48
 11 3 -8 88.98 8.52
 12 3 -8 70.01 8.5
 13 3 -8 111.14 10.15
 13 2 -8 135.98 11.39
 12 2 -8 67.29 8.51
 11 2 -8 180.33 11.71
 10 2 -8 9.83 10.05
 9 2 -8 431.88 15.37
 8 2 -8 12.84 8.43
 7 2 -8 2.62 7.34
 6 2 -8 24.65 4.46
 5 2 -8 13.23 6.94
 4 2 -8 273.1 10.46
 3 2 -8 67.32 5.79
 2 2 -8 148.1 7.85
 1 2 -8 332.34 11.53
 0 2 -8 263.18 10.77
 -1 2 -8 419.55 13.41
 -2 2 -8 -0.17 7.31
 -3 2 -8 21.6 8.23
 -4 2 -8 -3.74 8.52
 -5 2 -8 0.3 9.36
 -6 2 -8 36.89 6.16
 -7 2 -8 -1.67 11.2
 -8 2 -8 1.67 12.02
 -8 1 -8 4.17 12.23
 -7 1 -8 -0.43 11.05
 -6 1 -8 7.65 10.44
 -5 1 -8 3.07 9.26
 -4 1 -8 50.91 6.55
 -3 1 -8 93.37 7.56
 -2 1 -8 129.44 8.01
 -1 1 -8 308.51 11.91
 0 1 -8 310.31 11.67
 1 1 -8 714.9 16.75
 2 1 -8 117.74 7.05
 3 1 -8 151.07 7.93
 4 1 -8 16.12 6.85
 5 1 -8 195.48 9.32
 6 1 -8 133.67 7.75
 7 1 -8 50.66 5.61
 8 1 -8 30.53 4.6
 9 1 -8 53.39 6.4
 10 1 -8 579.12 18.26
 11 1 -8 3.1 10.38
 12 1 -8 342.42 15.64
 13 1 -8 4.67 12.77
 13 0 -8 190.38 12.34
 12 0 -8 34.94 12.21
 11 0 -8 396.97 16.32
 10 0 -8 10.96 10.01
 9 0 -8 660.26 18.68
 8 0 -8 80.16 7.11
 7 0 -8 509.67 15.05
 6 0 -8 1.06 7.1
 5 0 -8 472.3 13.73
 4 0 -8 153.87 8.08
 3 0 -8 2 6.53
 2 0 -8 716.08 16.68
 1 0 -8 9.02 7.11
 0 0 -8 1071.21 21.25
 -1 0 -8 6.8 7.47
 -2 0 -8 392.01 13.61
 -3 0 -8 -6.29 8.76
 -4 0 -8 112 8.54
 -5 0 -8 14.44 10
 -6 0 -8 4.9 10.43
 -7 0 -8 -0.57 11.77
 -8 0 -8 -3.31 12.74
 -7 -1 -8 16.63 12.32
 -6 -1 -8 1.7 10.8
 -5 -1 -8 106.2 8.71
 -4 -1 -8 -0.12 9.84
 -3 -1 -8 362.47 14.55
 -2 -1 -8 19.91 8.59
 -1 -1 -8 288.04 11.84
 0 -1 -8 178.52 9.32
 1 -1 -8 966.11 20.1
 2 -1 -8 140.24 8.15
 3 -1 -8 45.33 4.83
 4 -1 -8 163.55 8.27
 5 -1 -8 8.04 7.15
 6 -1 -8 477.62 14.61
 7 -1 -8 324.17 12.32
 8 -1 -8 695.81 18.43
 9 -1 -8 42.29 5.71
 10 -1 -8 613.39 19.05
 11 -1 -8 264.83 13.32
 12 -1 -8 128.97 10.19
 13 -1 -8 56.72 7.63
 13 -2 -8 -6.64 12.81
 12 -2 -8 291.18 14.27
 11 -2 -8 80.87 8.27
 10 -2 -8 386.23 15.12
 9 -2 -8 354.15 14.18
 8 -2 -8 553.69 16.66
 7 -2 -8 387.74 13.59
 6 -2 -8 447.11 14.12
 5 -2 -8 271.71 10.88
 4 -2 -8 13.36 7.14
 3 -2 -8 0.19 6.72
 2 -2 -8 28.54 4.61
 1 -2 -8 391.24 13.28
 0 -2 -8 16.01 7.65
 -1 -2 -8 6.46 7.74
 -2 -2 -8 460.93 15.47
 -3 -2 -8 86.1 7.89
 -4 -2 -8 260.8 12.75
 -5 -2 -8 35.32 6.03
 -6 -2 -8 12.51 11.61
 -7 -2 -8 -2.2 12.43
 -6 -3 -8 11.37 12.11
 -5 -3 -8 14.54 11.2
 -4 -3 -8 50.51 7.04
 -3 -3 -8 90.77 8.28
 -2 -3 -8 250.42 12.47
 -1 -3 -8 61.55 5.8
 0 -3 -8 0.76 7.4
 1 -3 -8 2.06 7.13
 2 -3 -8 88.91 6.71
 3 -3 -8 467.95 13.87
 4 -3 -8 175.25 8.86
 5 -3 -8 387.42 13.03
 6 -3 -8 121.36 8.11
 7 -3 -8 2026.24 30.76
 8 -3 -8 62.99 6.82
 9 -3 -8 652.69 18.4
 10 -3 -8 104.86 8.57
 11 -3 -8 218.21 12.15
 12 -3 -8 33.72 12.08
 13 -3 -8 5.27 11.99
 13 -4 -8 25.65 12.76
 12 -4 -8 27.61 11.93
 11 -4 -8 12.49 10.77
 10 -4 -8 334.89 14.1
 9 -4 -8 19.43 9.44
 8 -4 -8 867.76 21.12
 7 -4 -8 1.62 8.22
 6 -4 -8 649.66 17.29
 5 -4 -8 23.05 8.05
 4 -4 -8 715.08 17.79
 3 -4 -8 17.17 8
 2 -4 -8 153.58 8.78
 1 -4 -8 89.3 6.98
 0 -4 -8 -0.68 7.93
 -1 -4 -8 57.25 6.16
 -2 -4 -8 -1.3 9.42
 -3 -4 -8 110.53 9.03
 -4 -4 -8 14.55 10.74
 -5 -4 -8 39.97 6.47
 -6 -4 -8 9.39 12.72
 -5 -5 -8 2.12 11.96
 -4 -5 -8 65.63 7.12
 -3 -5 -8 0.59 10.18
 -2 -5 -8 94.79 8.11
 -1 -5 -8 8.99 9.1
 0 -5 -8 2.48 8.32
 1 -5 -8 19.22 8.39
 2 -5 -8 23.89 8.35
 3 -5 -8 454.57 14.64
 4 -5 -8 29 4.63
 5 -5 -8 551.81 16.07
 6 -5 -8 15.31 8.61
 7 -5 -8 678.08 18.42
 8 -5 -8 95.52 8.02
 9 -5 -8 74.09 7.24
 10 -5 -8 33.61 5.73
 11 -5 -8 10.4 10.52
 12 -5 -8 250.46 13.9
 13 -5 -8 4.03 12.24
 13 -6 -8 34.17 13.25
 12 -6 -8 60.92 7.45
 11 -6 -8 18.85 10.86
 10 -6 -8 8.79 9.9
 9 -6 -8 177.28 10.29
 8 -6 -8 49.17 6.21
 7 -6 -8 312.04 12.96
 6 -6 -8 273 12.05
 5 -6 -8 293.37 12.28
 4 -6 -8 670.58 18.43
 3 -6 -8 68.42 6.74
 2 -6 -8 119.07 8.36
 1 -6 -8 -3.03 8.36
 0 -6 -8 103.47 8
 -1 -6 -8 -0.12 9.8
 -2 -6 -8 32.08 10.93
 -3 -6 -8 29.4 11.52
 -4 -6 -8 5.43 11.73
 -5 -6 -8 20.5 12.96
 -4 -7 -8 -0.03 12.03
 -3 -7 -8 4.9 11.2
 -2 -7 -8 1.48 10.41
 -1 -7 -8 72.88 7.42
 0 -7 -8 77.79 7.71
 1 -7 -8 20.76 9.35
 2 -7 -8 77.4 7
 3 -7 -8 201.93 10.59
 4 -7 -8 394.73 14.9
 5 -7 -8 8.88 8.68
 6 -7 -8 220.98 11.02
 7 -7 -8 -3.02 9.11
 8 -7 -8 144.09 9.65
 9 -7 -8 80.03 7.48
 10 -7 -8 2.28 10.12
 11 -7 -8 30.8 11.64
 12 -7 -8 13.42 11.97
 13 -7 -8 119.61 10.98
 13 -8 -8 5.64 12.93
 12 -8 -8 82.53 8.41
 11 -8 -8 15.02 11.5
 10 -8 -8 163.19 10.61
 9 -8 -8 40.59 6.29
 8 -8 -8 20.68 10.04
 7 -8 -8 114.85 8.55
 6 -8 -8 -0.6 9.23
 5 -8 -8 297.17 13
 4 -8 -8 10.72 9.57
 3 -8 -8 332.54 14.08
 2 -8 -8 1.92 9.25
 1 -8 -8 161.25 10.16
 0 -8 -8 15.28 10.64
 -1 -8 -8 38.34 5.87
 -2 -8 -8 1.9 10.91
 -3 -8 -8 1.44 11.74
 -3 -9 -8 3.39 12.68
 -2 -9 -8 3.71 11.9
 -1 -9 -8 4.87 11.21
 0 -9 -8 242.26 13.13
 1 -9 -8 0.71 10.4
 2 -9 -8 188.55 11.06
 3 -9 -8 8.04 9.79
 4 -9 -8 307.31 13.57
 5 -9 -8 52.7 6.7
 6 -9 -8 20.8 10.15
 7 -9 -8 62.25 6.63
 8 -9 -8 15.74 10.33
 9 -9 -8 236.17 12.7
 10 -9 -8 16.57 11.54
 11 -9 -8 369.53 16.48
 12 -9 -8 -7.77 12.97
 12 -10 -8 57.51 7.56
 11 -10 -8 205.15 13.05
 10 -10 -8 139.44 10.7
 9 -10 -8 10.08 11.25
 8 -10 -8 55.46 6.69
 7 -10 -8 6.79 10.48
 6 -10 -8 37.3 5.58
 5 -10 -8 9.65 10.28
 4 -10 -8 90.69 7.95
 3 -10 -8 32.7 11.17
 2 -10 -8 55.62 7.53
 1 -10 -8 165.71 11.66
 0 -10 -8 4.34 12.02
 -1 -10 -8 43.31 7.33
 -2 -10 -8 3.97 12.37
 -1 -11 -8 10.61 13.47
 0 -11 -8 35.21 13.3
 1 -11 -8 27.44 12.82
 2 -11 -8 4.26 11.28
 3 -11 -8 11.85 11.31
 4 -11 -8 -0.97 10.67
 5 -11 -8 79.67 7.58
 6 -11 -8 20.88 11.25
 7 -11 -8 47.68 6.61
 8 -11 -8 31.42 11.81
 9 -11 -8 46.32 6.54
 10 -11 -8 235.33 13.73
 11 -11 -8 53.97 8.44
 10 -12 -8 1 12.75
 9 -12 -8 49.17 7.15
 8 -12 -8 5.32 11.79
 7 -12 -8 229.98 13.55
 6 -12 -8 11.17 11.75
 5 -12 -8 14.1 11.81
 4 -12 -8 4.13 11.53
 3 -12 -8 1.73 11.49
 2 -12 -8 34.06 12.85
 1 -12 -8 5.23 12.67
 3 -13 -8 13.33 12.68
 4 -13 -8 4.32 12.22
 5 -13 -8 5.79 12.3
 6 -13 -8 69.67 8.36
 7 -13 -8 1.89 12.63
 8 -13 -8 95.44 9.52
 9 -13 -8 14.57 13.18
 4 -12 -9 2.81 12.68
 5 -12 -9 8.58 12.68
 6 -12 -9 17.02 12.9
 7 -12 -9 79.43 9.29
 8 -12 -9 64.81 8.73
 9 -11 -9 17.95 12.69
 8 -11 -9 6.99 12.47
 7 -11 -9 39.39 13.25
 6 -11 -9 3.74 12.03
 5 -11 -9 14.53 12.4
 4 -11 -9 -3.51 11.94
 3 -11 -9 2.68 12.02
 2 -11 -9 8.75 12.67
 0 -10 -9 -2.12 13.26
 1 -10 -9 77.54 8.69
 2 -10 -9 3.43 11.67
 3 -10 -9 8.74 11.4
 4 -10 -9 -0.8 11.18
 5 -10 -9 9.04 11.14
 6 -10 -9 32.63 12.39
 7 -10 -9 24.08 12
 8 -10 -9 45.64 6.83
 9 -10 -9 12.11 12.19
 10 -10 -9 44.03 7.2
 11 -9 -9 389.81 18.14
 10 -9 -9 13.19 12.51
 9 -9 -9 133.13 10.08
 8 -9 -9 4.27 11.35
 7 -9 -9 79.95 8
 6 -9 -9 2.09 10.78
 5 -9 -9 12.31 10.99
 4 -9 -9 18.83 11.06
 3 -9 -9 2.01 10.58
 2 -9 -9 48.64 6.63
 1 -9 -9 7.14 11.67
 0 -9 -9 96.81 10.38
 -1 -9 -9 -1.96 12.87
 -2 -8 -9 2.37 12.44
 -1 -8 -9 28.39 13.06
 0 -8 -9 35.3 12.97
 1 -8 -9 95.17 9.56
 2 -8 -9 2.51 10.64
 3 -8 -9 174.52 10.72
 4 -8 -9 -1.61 10.54
 5 -8 -9 232.14 12.08
 6 -8 -9 16.05 10.48
 7 -8 -9 22.69 10.68
 8 -8 -9 8.99 10.8
 9 -8 -9 39.24 6.61
 10 -8 -9 326.93 15.87
 11 -8 -9 32.89 6.89
 12 -8 -9 62.55 8.02
 12 -7 -9 73.2 8.51
 11 -7 -9 87.86 8.93
 10 -7 -9 59.47 7.48
 9 -7 -9 38.87 6.67
 8 -7 -9 76.73 7.37
 7 -7 -9 -3.84 9.78
 6 -7 -9 46.51 5.96
 5 -7 -9 61.21 7.14
 4 -7 -9 182.75 10.96
 3 -7 -9 180.51 10.95
 2 -7 -9 84.8 8.2
 1 -7 -9 52.37 6.74
 0 -7 -9 21.45 11.88
 -1 -7 -9 30.14 12.44
 -2 -7 -9 2.44 11.69
 -3 -7 -9 1.26 12.61
 -3 -6 -9 3.18 11.89
 -2 -6 -9 1.02 11.19
 -1 -6 -9 -0.99 10.59
 0 -6 -9 160.95 10.89
 1 -6 -9 2.91 9.66
 2 -6 -9 192.06 10.75
 3 -6 -9 10.71 9.57
 4 -6 -9 286.37 13.46
 5 -6 -9 76.79 7.31
 6 -6 -9 54.66 5.98
 7 -6 -9 29.66 5.11
 8 -6 -9 12.74 9.97
 9 -6 -9 96.19 8.56
 10 -6 -9 21.06 11.3
 11 -6 -9 36.78 12.62
 12 -6 -9 8.56 12.41
 13 -5 -9 8.27 13.2
 12 -5 -9 113.58 9.97
 11 -5 -9 0.95 11.19
 10 -5 -9 22.41 10.98
 9 -5 -9 -0.42 10.22
 8 -5 -9 23.08 10.11
 7 -5 -9 204.96 11.04
 6 -5 -9 -0.15 8.78
 5 -5 -9 259.1 12.14
 4 -5 -9 7.86 9.17
 3 -5 -9 420.04 14.93
 2 -5 -9 15.52 9.16
 1 -5 -9 65.52 6.53
 0 -5 -9 15.19 10.09
 -1 -5 -9 63.64 7.46
 -2 -5 -9 4.88 10.86
 -3 -5 -9 0.84 11.19
 -4 -5 -9 7.36 12.2
 -5 -4 -9 15.17 13.13
 -4 -4 -9 -3.68 12.05
 -3 -4 -9 5.99 10.92
 -2 -4 -9 -1.21 10.29
 -1 -4 -9 44.82 5.96
 0 -4 -9 7.57 9.22
 1 -4 -9 9.63 8.92
 2 -4 -9 66.85 6.68
 3 -4 -9 65.24 6.79
 4 -4 -9 691.96 18.83
 5 -4 -9 125.13 8.64
 6 -4 -9 418.66 15.09
 7 -4 -9 17.41 9.52
 8 -4 -9 247.64 12.36
 9 -4 -9 27.52 10.34
 10 -4 -9 16.62 10.6
 11 -4 -9 50.36 7.03
 12 -4 -9 14.76 12.32
 13 -4 -9 102.07 9.65
 13 -3 -9 3.98 12.76
 12 -3 -9 38.75 6.63
 11 -3 -9 51.12 6.77
 10 -3 -9 19.74 10.5
 9 -3 -9 151.94 9.77
 8 -3 -9 88.44 8.08
 7 -3 -9 336.08 13.65
 6 -3 -9 358.62 14.01
 5 -3 -9 315.05 12.56
 4 -3 -9 275.72 12.29
 3 -3 -9 418.49 14.53
 2 -3 -9 195.82 10.02
 1 -3 -9 14.18 8.69
 0 -3 -9 4.73 8.59
 -1 -3 -9 7.31 9.24
 -2 -3 -9 21.45 10.47
 -3 -3 -9 38.48 6.19
 -4 -3 -9 0.97 11.23
 -5 -3 -9 15.74 12.52
 -6 -2 -9 14.86 12.91
 -5 -2 -9 -2.07 11.93
 -4 -2 -9 70.75 8.25
 -3 -2 -9 1.09 10.47
 -2 -2 -9 214.73 12.27
 -1 -2 -9 3.21 8.7
 0 -2 -9 36.35 4.7
 1 -2 -9 42.29 5.38
 2 -2 -9 51.67 5.58
 3 -2 -9 217.57 10.58
 4 -2 -9 4.79 7.94
 5 -2 -9 160.46 9.14
 6 -2 -9 26.67 5.2
 7 -2 -9 311.89 13.03
 8 -2 -9 161.68 10.1
 9 -2 -9 215.24 11.65
 10 -2 -9 63.67 7.26
 11 -2 -9 12.77 11.19
 12 -2 -9 119.21 9.96
 13 -2 -9 2.63 12.69
 13 -1 -9 21.15 13.13
 12 -1 -9 26.12 12.44
 11 -1 -9 54.29 7.19
 10 -1 -9 529.9 17.65
 9 -1 -9 11.95 9.75
 8 -1 -9 793.64 20.42
 7 -1 -9 63.56 6.87
 6 -1 -9 468.64 15.26
 5 -1 -9 26.17 4.51
 4 -1 -9 125.8 8.04
 3 -1 -9 14.35 7.66
 2 -1 -9 9.53 7.71
 1 -1 -9 124.69 8.27
 0 -1 -9 -0.91 7.98
 -1 -1 -9 103.49 7.92
 -2 -1 -9 4.6 9.4
 -3 -1 -9 293.97 14.17
 -4 -1 -9 10.53 10.82
 -5 -1 -9 55.33 7.78
 -6 -1 -9 -2.22 12.22
 -6 0 -9 4.85 12.05
 -5 0 -9 19.3 11.47
 -4 0 -9 80.36 8.78
 -3 0 -9 26.36 10.64
 -2 0 -9 246.94 12.16
 -1 0 -9 3.19 8.27
 0 0 -9 211.43 10.66
 1 0 -9 129.04 8.51
 2 0 -9 222.76 10.42
 3 0 -9 192.37 9.51
 4 0 -9 182.57 9.43
 5 0 -9 119.88 8.2
 6 0 -9 92.36 7.7
 7 0 -9 1073.36 23.35
 8 0 -9 88.15 7.92
 9 0 -9 430.86 15.93
 10 0 -9 5.6 10.31
 11 0 -9 164.89 11.58
 12 0 -9 17.26 12.38
 13 0 -9 44.4 7.33
 12 1 -9 185.23 12.32
 11 1 -9 7.4 11.22
 10 1 -9 362.32 15.46
 9 1 -9 187.13 11.06
 8 1 -9 204.87 10.93
 7 1 -9 325.13 13.19
 6 1 -9 251.46 11.19
 5 1 -9 471.43 14.99
 4 1 -9 5.26 7.24
 3 1 -9 163.86 8.92
 2 1 -9 189.27 9.52
 1 1 -9 1054.63 22.42
 0 1 -9 57.15 6.39
 -1 1 -9 250.11 11.77
 -2 1 -9 88.55 7.91
 -3 1 -9 182.52 10.73
 -4 1 -9 73.81 7.86
 -5 1 -9 3.32 10.82
 -6 1 -9 11.91 11.67
 -7 1 -9 -3.21 12.56
 -7 2 -9 6.36 12.35
 -6 2 -9 2.12 11.29
 -5 2 -9 49.08 6.49
 -4 2 -9 -5.49 9.92
 -3 2 -9 105.82 8.79
 -2 2 -9 41.51 5.37
 -1 2 -9 208.3 10.43
 0 2 -9 137.03 8.63
 1 2 -9 463.94 14.58
 2 2 -9 -1.37 7.51
 3 2 -9 74.56 6.44
 4 2 -9 210.2 10.33
 5 2 -9 4.7 7.6
 6 2 -9 354.79 13.36
 7 2 -9 25.69 8.9
 8 2 -9 226.32 11.55
 9 2 -9 43.3 6.14
 10 2 -9 213.13 12.3
 11 2 -9 100.42 9.19
 12 2 -9 104.69 10.45
 12 3 -9 22.58 13.38
 11 3 -9 158.54 11.5
 10 3 -9 61.91 7.41
 9 3 -9 122.39 9.15
 8 3 -9 5.8 8.99
 7 3 -9 12.37 8.71
 6 3 -9 -0.05 8.16
 5 3 -9 268.7 11.45
 4 3 -9 205.7 10.07
 3 3 -9 87.52 6.6
 2 3 -9 169.06 8.91
 1 3 -9 -1.12 7.57
 0 3 -9 389.36 13.87
 -1 3 -9 -3.2 8.09
 -2 3 -9 124.17 8.42
 -3 3 -9 2.59 8.71
 -4 3 -9 27.09 10.17
 -5 3 -9 17.23 10.61
 -6 3 -9 -0.01 11.12
 -7 3 -9 12.24 12.42
 -7 4 -9 -3.73 11.93
 -6 4 -9 17.08 11.27
 -5 4 -9 -6.33 10.35
 -4 4 -9 1.75 9.29
 -3 4 -9 26.88 9.4
 -2 4 -9 9.91 8.38
 -1 4 -9 190.59 10.04
 0 4 -9 23.12 4.17
 1 4 -9 450.46 14.22
 2 4 -9 1.77 7.44
 3 4 -9 719.66 17.71
 4 4 -9 47.96 5.63
 5 4 -9 270.56 11.68
 6 4 -9 -0.15 8.34
 7 4 -9 19.4 9.09
 8 4 -9 169.72 10.09
 9 4 -9 -0.48 10.07
 10 4 -9 249.47 13.4
 11 4 -9 -1.22 12.01
 12 4 -9 255.63 14.6
 11 5 -9 67.01 8.11
 10 5 -9 13.98 11.29
 9 5 -9 101.3 8.74
 8 5 -9 119 9.25
 7 5 -9 -4.33 9.08
 6 5 -9 277.64 12.32
 5 5 -9 -0.93 8.29
 4 5 -9 526.61 15.83
 3 5 -9 34.89 5.41
 2 5 -9 534.24 15.68
 1 5 -9 32.81 4.59
 0 5 -9 126.36 8.35
 -1 5 -9 52.78 5.82
 -2 5 -9 3.88 8.32
 -3 5 -9 1.08 8.56
 -4 5 -9 -0.33 9.13
 -5 5 -9 4.14 10.03
 -6 5 -9 13.68 11.26
 -7 5 -9 2.78 12
 -8 6 -9 -1.52 12.83
 -7 6 -9 30.91 12.61
 -6 6 -9 6.75 11.1
 -5 6 -9 27.62 10.82
 -4 6 -9 2.6 9.4
 -3 6 -9 6.4 9.05
 -2 6 -9 37.79 5.26
 -1 6 -9 -0.08 7.98
 0 6 -9 87.08 6.99
 1 6 -9 171.61 9.04
 2 6 -9 170.38 9.61
 3 6 -9 325.42 12.7
 4 6 -9 78.17 6.97
 5 6 -9 318.84 13.02
 6 6 -9 163.98 10.1
 7 6 -9 77.21 7.79
 8 6 -9 8.88 10.18
 9 6 -9 92.72 8.35
 10 6 -9 -2.55 11.63
 11 6 -9 12.83 12.57
 11 7 -9 1 12.67
 10 7 -9 10.83 11.92
 9 7 -9 60.15 7.2
 8 7 -9 167.56 10.96
 7 7 -9 138.1 9.71
 6 7 -9 53.23 6.47
 5 7 -9 400.28 14.52
 4 7 -9 39.57 5.3
 3 7 -9 355.37 13.47
 2 7 -9 46.71 5.62
 1 7 -9 20.95 8.34
 0 7 -9 1.14 7.72
 -1 7 -9 1.67 8.35
 -2 7 -9 90.94 7.52
 -3 7 -9 2.71 8.93
 -4 7 -9 59.11 6.91
 -5 7 -9 1.51 9.98
 -6 7 -9 113.74 9.79
 -7 7 -9 0.83 11.68
 -8 7 -9 23.03 13.43
 -8 8 -9 -2.01 13.27
 -7 8 -9 27.74 13
 -6 8 -9 2.79 11.06
 -5 8 -9 84.43 8.19
 -4 8 -9 15.73 9.82
 -3 8 -9 155.91 9.84
 -2 8 -9 2.98 8.67
 -1 8 -9 33.23 4.91
 0 8 -9 -0.54 7.99
 1 8 -9 15.57 8.3
 2 8 -9 98.53 7.73
 3 8 -9 18.18 8.88
 4 8 -9 226.72 11.01
 5 8 -9 -7.62 9.44
 6 8 -9 556.8 17.75
 7 8 -9 3.32 10.17
 8 8 -9 196.76 11.5
 9 8 -9 2.42 11.42
 10 8 -9 26.24 13.22
 10 9 -9 0.85 12.75
 9 9 -9 103.02 9.62
 8 9 -9 1.36 11.14
 7 9 -9 128.51 9.8
 6 9 -9 1.56 10.03
 5 9 -9 226.37 11.74
 4 9 -9 -2.47 9.07
 3 9 -9 59.68 6.35
 2 9 -9 65.7 6.55
 1 9 -9 7.7 8.65
 0 9 -9 74.41 6.73
 -1 9 -9 2.04 8.44
 -2 9 -9 228.65 11.72
 -3 9 -9 2.7 9.47
 -4 9 -9 80.33 7.95
 -5 9 -9 14.64 10.89
 -6 9 -9 55.97 7.38
 -7 9 -9 0.76 11.96
 -7 10 -9 -2.13 12.36
 -6 10 -9 25.77 12.06
 -5 10 -9 8.22 10.87
 -4 10 -9 60.93 7.24
 -3 10 -9 117.27 8.93
 -2 10 -9 103.11 7.9
 -1 10 -9 18.24 9.48
 0 10 -9 20.85 9.26
 1 10 -9 14.98 9.11
 2 10 -9 8.34 8.93
 3 10 -9 17.7 9.52
 4 10 -9 24.49 9.85
 5 10 -9 33.43 5.32
 6 10 -9 125.55 9.54
 7 10 -9 26.26 11.8
 8 10 -9 118.96 10.52
 9 10 -9 21.27 13.03
 8 11 -9 105.39 9.8
 7 11 -9 28.81 12.44
 6 11 -9 116.22 9.62
 5 11 -9 8.61 10.67
 4 11 -9 23.96 10.43
 3 11 -9 -1.01 9.75
 2 11 -9 14.96 9.66
 1 11 -9 15.59 9.62
 0 11 -9 2.9 9.38
 -1 11 -9 68 7.1
 -2 11 -9 4.47 9.62
 -3 11 -9 165.2 10.81
 -4 11 -9 -0.95 10.91
 -5 11 -9 61.66 7.72
 -6 11 -9 -2.62 11.57
 -7 11 -9 -3.4 12.44
 -7 12 -9 1.43 12.43
 -6 12 -9 4.25 12.08
 -5 12 -9 0.71 11.25
 -4 12 -9 35.88 6.28
 -3 12 -9 1.65 10.36
 -2 12 -9 40.75 6.34
 -1 12 -9 1.76 9.93
 0 12 -9 57.51 7.09
 1 12 -9 3.92 9.79
 2 12 -9 10.49 9.96
 3 12 -9 -1.4 10.2
 4 12 -9 0.13 10.29
 5 12 -9 31.56 11.7
 6 12 -9 11.66 11.91
 7 12 -9 73.1 8.35
 7 13 -9 -2.59 13.05
 6 13 -9 27.9 12.93
 5 13 -9 -1.29 11.88
 4 13 -9 1.79 11.09
 3 13 -9 21 11.15
 2 13 -9 6.04 10.57
 1 13 -9 67.03 7.38
 0 13 -9 9.34 10.49
 -1 13 -9 129.87 9.72
 -2 13 -9 -5.57 10.95
 -3 13 -9 23.9 11.67
 -4 13 -9 0.31 11.12
 -5 13 -9 16.07 11.84
 -6 13 -9 2.44 11.98
 -6 14 -9 1.06 12.55
 -5 14 -9 2.92 12.09
 -4 14 -9 2.67 11.58
 -3 14 -9 3.31 11.27
 -2 14 -9 34.39 6.15
 -1 14 -9 31.64 12.04
 0 14 -9 51.21 7
 1 14 -9 12.79 11.77
 2 14 -9 80.52 8.23
 3 14 -9 13.96 11.48
 4 14 -9 19.94 12.26
 5 14 -9 4.76 12.09
 6 14 -9 4.8 12.73
 4 15 -9 5.22 12.39
 3 15 -9 9.93 12.43
 2 15 -9 23.82 12.45
 1 15 -9 3.03 11.61
 0 15 -9 33.05 12.57
 -1 15 -9 5.2 11.79
 -2 15 -9 5.49 11.75
 -3 15 -9 1.6 11.62
 -4 15 -9 -4.14 12.23
 -5 15 -9 3.02 12.48
 -4 16 -9 5.05 12.56
 -3 16 -9 -0.18 12.26
 -2 16 -9 -3.15 12.24
 -1 16 -9 38.83 13.33
 0 16 -9 5.22 12
 1 16 -9 20.35 12.83
 2 16 -9 -7.97 12.92
 3 16 -9 20.33 13.5
 -3 15 -10 -0.42 13.28
 -2 15 -10 7.13 12.84
 -1 15 -10 14.37 12.84
 0 15 -10 13.57 12.88
 1 15 -10 10.71 12.62
 2 15 -10 11.81 12.73
 3 15 -10 5.96 12.89
 4 14 -10 6.79 12.5
 3 14 -10 9.8 12.16
 2 14 -10 33.1 12.53
 1 14 -10 10.32 11.82
 0 14 -10 39.13 6.55
 -1 14 -10 17.67 12.37
 -2 14 -10 14.19 12.67
 -3 14 -10 13.05 12.66
 -4 14 -10 -3.25 13.41
 -5 13 -10 8.53 12.9
 -4 13 -10 18.52 13.22
 -3 13 -10 24.98 12.6
 -2 13 -10 32.82 12.66
 -1 13 -10 23.26 12.14
 0 13 -10 7.16 11.34
 1 13 -10 24.77 11.68
 2 13 -10 -0.3 11.35
 3 13 -10 8.55 11.53
 4 13 -10 -0.59 11.95
 5 13 -10 -0.43 12.68
 6 13 -10 19.63 13.34
 7 12 -10 39.79 14.14
 6 12 -10 -1.13 12.23
 5 12 -10 49.53 7.09
 4 12 -10 2.95 11.06
 3 12 -10 10.53 11.02
 2 12 -10 7.5 10.87
 1 12 -10 -4.7 10.78
 0 12 -10 32.54 5.71
 -1 12 -10 8.12 10.88
 -2 12 -10 59.5 7.17
 -3 12 -10 4.35 11.67
 -4 12 -10 29.46 12.63
 -5 12 -10 1.71 12.45
 -6 11 -10 2.48 12.77
 -5 11 -10 18.18 12.69
 -4 11 -10 -2.99 11.65
 -3 11 -10 50.07 6.74
 -2 11 -10 -0.17 10.53
 -1 11 -10 33.44 11.36
 0 11 -10 1.26 9.99
 1 11 -10 11.33 10.37
 2 11 -10 53.95 6.53
 3 11 -10 4.01 10.26
 4 11 -10 78.42 7.94
 5 11 -10 -2.05 11.42
 6 11 -10 116.96 10.25
 7 11 -10 2.21 12.3
 8 10 -10 31.64 13.12
 7 10 -10 12.28 11.76
 6 10 -10 18.03 11.86
 5 10 -10 61.48 7.2
 4 10 -10 7.59 10.42
 3 10 -10 35.37 5.43
 2 10 -10 -0.21 9.73
 1 10 -10 7.41 9.96
 0 10 -10 4.75 9.69
 -1 10 -10 0.64 9.81
 -2 10 -10 19.3 10.79
 -3 10 -10 6.35 10.89
 -4 10 -10 18.39 11.93
 -5 10 -10 3.36 11.8
 -6 10 -10 33.81 7.38
 -6 9 -10 19.71 13.13
 -5 9 -10 14.75 11.95
 -4 9 -10 16.36 11.37
 -3 9 -10 -1.17 10.64
 -2 9 -10 15.5 10.44
 -1 9 -10 -2.23 9.76
 0 9 -10 11.13 9.61
 1 9 -10 7 9.32
 2 9 -10 64.73 7.12
 3 9 -10 29 10.72
 4 9 -10 31.87 5.69
 5 9 -10 128 9.54
 6 9 -10 55.6 7.44
 7 9 -10 25.73 12.05
 8 9 -10 -0.08 11.96
 9 9 -10 11.52 12.84
 9 8 -10 0.57 12.21
 8 8 -10 67.7 8.53
 7 8 -10 -1.99 10.95
 6 8 -10 310.54 14.23
 5 8 -10 4.69 9.94
 4 8 -10 238.8 12.06
 3 8 -10 28.02 5.68
 2 8 -10 235.94 11.9
 1 8 -10 4.85 8.96
 0 8 -10 6.23 9.17
 -1 8 -10 2.07 9.5
 -2 8 -10 -0.55 9.76
 -3 8 -10 15.37 10.83
 -4 8 -10 4.95 10.82
 -5 8 -10 16.19 11.97
 -6 8 -10 16.43 12.87
 -6 7 -10 17.62 12.71
 -5 7 -10 4.41 11.33
 -4 7 -10 3.18 10.75
 -3 7 -10 -7.5 10.28
 -2 7 -10 1.7 9.53
 -1 7 -10 30.84 5.33
 0 7 -10 3.54 9.1
 1 7 -10 67.92 6.83
 2 7 -10 12.94 9.08
 3 7 -10 278.33 13
 4 7 -10 18.64 9.79
 5 7 -10 165 10.2
 6 7 -10 2.49 9.74
 7 7 -10 20.28 10.91
 8 7 -10 113.18 9.42
 9 7 -10 -0.17 12.28
 10 7 -10 39.37 6.59
 10 6 -10 23.15 12.87
 9 6 -10 35.9 12.7
 8 6 -10 25 11.18
 7 6 -10 -0.27 9.85
 6 6 -10 13.16 9.82
 5 6 -10 47.23 6.22
 4 6 -10 119.57 8.87
 3 6 -10 103.22 8.11
 2 6 -10 156.23 9.75
 1 6 -10 40.56 5.68
 0 6 -10 119.35 8.84
 -1 6 -10 13.62 9.75
 -2 6 -10 27.54 4.9
 -3 6 -10 2.16 9.82
 -4 6 -10 1.19 10.38
 -5 6 -10 4.83 11.2
 -6 6 -10 1.62 11.95
 -6 5 -10 3.85 12.19
 -5 5 -10 2.37 11.22
 -4 5 -10 -1.02 10.62
 -3 5 -10 7.21 10.31
 -2 5 -10 7.27 9.45
 -1 5 -10 81.92 7.8
 0 5 -10 142.91 9.37
 1 5 -10 117.42 8.6
 2 5 -10 56.85 5.97
 3 5 -10 48.06 6.04
 4 5 -10 202.67 10.93
 5 5 -10 7.85 9
 6 5 -10 42.69 5.68
 7 5 -10 -1.2 9.91
 8 5 -10 -3.94 10.37
 9 5 -10 76.68 8.08
 10 5 -10 1.05 11.82
 11 5 -10 81.53 9.23
 11 4 -10 -1.54 12.7
 10 4 -10 196.56 12.49
 9 4 -10 3.48 10.81
 8 4 -10 27.28 10.65
 7 4 -10 37.68 5.68
 6 4 -10 5.7 9.22
 5 4 -10 105.15 7.85
 4 4 -10 9.39 8.67
 3 4 -10 58.85 6.09
 2 4 -10 105.19 7.98
 1 4 -10 333.49 13.91
 0 4 -10 79.38 7.93
 -1 4 -10 192.51 10.87
 -2 4 -10 40.09 5.8
 -3 4 -10 39.15 5.99
 -4 4 -10 11.68 10.93
 -5 4 -10 2.35 11.44
 -6 4 -10 4.64 12.42
 -6 3 -10 1.13 12.32
 -5 3 -10 12.64 12.02
 -4 3 -10 17.64 11.38
 -3 3 -10 3.77 9.99
 -2 3 -10 116.09 8.81
 -1 3 -10 2.48 9.15
 0 3 -10 419.22 15.45
 1 3 -10 -1.11 9.03
 2 3 -10 211.52 10.66
 3 3 -10 -1.04 8.34
 4 3 -10 45.31 5.73
 5 3 -10 15.36 9.04
 6 3 -10 -0.68 8.95
 7 3 -10 207.7 11.29
 8 3 -10 7.28 10.01
 9 3 -10 230.99 12.95
 10 3 -10 7.06 11.68
 11 3 -10 130.77 10.73
 12 2 -10 33.22 13.99
 11 2 -10 78.12 8.85
 10 2 -10 171.38 11.79
 9 2 -10 27.54 11.33
 8 2 -10 291.36 13.5
 7 2 -10 44.49 6.6
 6 2 -10 96.17 7.76
 5 2 -10 -1.83 8.53
 4 2 -10 64.16 6.29
 3 2 -10 1.2 8.14
 2 2 -10 26.17 9.26
 1 2 -10 253.27 12.31
 0 2 -10 49.17 6.01
 -1 2 -10 34.62 5.24
 -2 2 -10 -2.49 9.75
 -3 2 -10 103.8 9.22
 -4 2 -10 -1.89 11.21
 -5 2 -10 18.41 12.46
 -6 2 -10 -0.86 12.46
 -5 1 -10 6.59 11.96
 -4 1 -10 30.64 12.59
 -3 1 -10 27.95 11.55
 -2 1 -10 120.66 9.26
 -1 1 -10 -0.07 9.34
 0 1 -10 7.58 9.03
 1 1 -10 126.9 8.87
 2 1 -10 8.96 8.63
 3 1 -10 34.34 4.93
 4 1 -10 2.17 8.32
 5 1 -10 45.79 5.9
 6 1 -10 127.71 9.33
 7 1 -10 154.53 10
 8 1 -10 119.12 9.09
 9 1 -10 135.74 9.92
 10 1 -10 157.88 10.93
 11 1 -10 -0.58 11.77
 12 1 -10 91.58 9.47
 12 0 -10 20.9 13.15
 11 0 -10 87.36 9.03
 10 0 -10 6.01 11.3
 9 0 -10 250.11 13.02
 8 0 -10 -1.59 9.77
 7 0 -10 449.15 16.25
 6 0 -10 4.29 8.73
 5 0 -10 87.59 7.55
 4 0 -10 77.06 6.72
 3 0 -10 54.1 5.61
 2 0 -10 48.34 5.93
 1 0 -10 -4.79 9.12
 0 0 -10 5.2 9.07
 -1 0 -10 15.78 9.78
 -2 0 -10 60.07 7.42
 -3 0 -10 6.39 11.18
 -4 0 -10 15.6 11.72
 -5 0 -10 2 12.22
 -5 -1 -10 18.47 13.43
 -4 -1 -10 -5.06 12.17
 -3 -1 -10 26.88 12.45
 -2 -1 -10 2.65 10.45
 -1 -1 -10 18.22 10.16
 0 -1 -10 0.38 9.07
 1 -1 -10 9.25 9.01
 2 -1 -10 7.49 8.71
 3 -1 -10 3.21 8.66
 4 -1 -10 196.03 10.56
 5 -1 -10 4.56 8.85
 6 -1 -10 178.66 10.49
 7 -1 -10 23.83 10.45
 8 -1 -10 173.57 11.2
 9 -1 -10 20.53 10.69
 10 -1 -10 122.95 9.59
 11 -1 -10 37.88 12.67
 12 -1 -10 24.71 13.38
 12 -2 -10 126.72 10.78
 11 -2 -10 -2.29 11.89
 10 -2 -10 31.05 11.71
 9 -2 -10 18.71 10.92
 8 -2 -10 107.77 9.07
 7 -2 -10 380.82 15.12
 6 -2 -10 12.37 9.65
 5 -2 -10 330.95 13.85
 4 -2 -10 18.72 9.97
 3 -2 -10 133.66 9.66
 2 -2 -10 1.97 8.78
 1 -2 -10 0.85 9.13
 0 -2 -10 2.11 9.34
 -1 -2 -10 -0.24 10.11
 -2 -2 -10 16.67 11.01
 -3 -2 -10 -0.11 11.28
 -4 -2 -10 26.06 13.14
 -4 -3 -10 6.17 12.6
 -3 -3 -10 2.81 11.68
 -2 -3 -10 15.61 11.53
 -1 -3 -10 2.64 10.62
 0 -3 -10 63.54 7.16
 1 -3 -10 17.08 9.85
 2 -3 -10 91.98 8.01
 3 -3 -10 111.77 8.91
 4 -3 -10 256.57 12.86
 5 -3 -10 177.34 10.48
 6 -3 -10 144.69 9.4
 7 -3 -10 242.88 12.57
 8 -3 -10 -0.88 10.36
 9 -3 -10 112.01 9.41
 10 -3 -10 11.08 11.45
 11 -3 -10 14.91 12.06
 12 -3 -10 38.53 13.66
 12 -4 -10 12.09 13.06
 11 -4 -10 17.95 12.67
 10 -4 -10 9.64 11.37
 9 -4 -10 27.7 11.75
 8 -4 -10 110.45 9.3
 7 -4 -10 6.61 10.22
 6 -4 -10 84.43 8.2
 5 -4 -10 8.4 9.79
 4 -4 -10 166.53 10.8
 3 -4 -10 141.59 10
 2 -4 -10 130.57 9.31
 1 -4 -10 26.59 10.56
 0 -4 -10 58.43 7.15
 -1 -4 -10 35.54 12.08
 -2 -4 -10 2.82 11.36
 -3 -4 -10 3.52 11.96
 -2 -5 -10 -1.36 11.92
 -1 -5 -10 30.31 12.42
 0 -5 -10 24.01 11.87
 1 -5 -10 58.62 6.96
 2 -5 -10 5.57 10.04
 3 -5 -10 187.1 11.37
 4 -5 -10 1.92 10.26
 5 -5 -10 171.22 10.78
 6 -5 -10 -0.37 9.87
 7 -5 -10 50.78 6.92
 8 -5 -10 17.2 10.85
 9 -5 -10 30 11.67
 10 -5 -10 155.63 11.28
 11 -5 -10 22.21 12.52
 12 -5 -10 86.36 9.47
 11 -6 -10 295.75 15.37
 10 -6 -10 22.03 12.68
 9 -6 -10 100.12 9.48
 8 -6 -10 2.49 10.7
 7 -6 -10 37.16 6.08
 6 -6 -10 -3.99 10.46
 5 -6 -10 32.1 11.26
 4 -6 -10 176.03 11.65
 3 -6 -10 3.45 10.57
 2 -6 -10 106.68 9.18
 1 -6 -10 0.84 11.04
 0 -6 -10 130.52 10.78
 -1 -6 -10 2.5 12.2
 -2 -6 -10 9.01 12.63
 -1 -7 -10 30.06 13.85
 0 -7 -10 6.99 12.33
 1 -7 -10 56.45 7.98
 2 -7 -10 24.55 11.86
 3 -7 -10 6.16 11.05
 4 -7 -10 35.39 6.08
 5 -7 -10 5.54 10.69
 6 -7 -10 39.99 6.19
 7 -7 -10 6.74 11.07
 8 -7 -10 38.66 6.49
 9 -7 -10 11.76 12.07
 10 -7 -10 126.68 10.72
 11 -7 -10 60.6 8.66
 10 -8 -10 195.07 13.54
 9 -8 -10 22.46 12.62
 8 -8 -10 34.77 12.51
 7 -8 -10 41.48 6.75
 6 -8 -10 13.7 11.74
 5 -8 -10 26.94 12.2
 4 -8 -10 2.33 10.94
 3 -8 -10 3.75 11.21
 2 -8 -10 1.99 11.78
 1 -8 -10 10.38 12.75
 0 -8 -10 31.67 13.81
 2 -9 -10 18.26 12.91
 3 -9 -10 -1.38 12
 4 -9 -10 -1.18 11.55
 5 -9 -10 4 11.53
 6 -9 -10 1.44 11.82
 7 -9 -10 90.21 9.63
 8 -9 -10 1.59 12.1
 9 -9 -10 8.57 12.8
 8 -10 -10 61.59 8.19
 7 -10 -10 -1.71 12.75
 6 -10 -10 38.21 13.27
 5 -10 -10 1.19 12.12
 4 -10 -10 2.5 12.36
 3 -10 -10 -1.43 12.85
 4 -8 -11 -0.05 12.47
 5 -8 -11 9.19 12.81
 6 -8 -11 10.05 12.53
 7 -8 -11 37.99 6.64
 8 -8 -11 3.98 12.66
 9 -7 -11 5.49 12.86
 8 -7 -11 23.75 12.83
 7 -7 -11 1.67 12.42
 6 -7 -11 17.5 12.39
 5 -7 -11 3.1 11.85
 4 -7 -11 2.27 11.94
 3 -7 -11 2.16 12.02
 2 -7 -11 1.4 12.41
 1 -6 -11 -2.54 12.79
 2 -6 -11 14.4 12.16
 3 -6 -11 1.97 11.4
 4 -6 -11 2.88 11.21
 5 -6 -11 3.04 11.47
 6 -6 -11 -5.31 11.75
 7 -6 -11 43.76 6.75
 8 -6 -11 -1.01 11.96
 9 -6 -11 71.03 8.26
 10 -6 -11 31.85 14.39
 10 -5 -11 181.45 12.79
 9 -5 -11 3.65 12.37
 8 -5 -11 6.11 11.52
 7 -5 -11 14.23 11.73
 6 -5 -11 9.14 11.41
 5 -5 -11 59.03 7.91
 4 -5 -11 -1.29 11.54
 3 -5 -11 29.34 12
 2 -5 -11 3.39 11.43
 1 -5 -11 19.91 12.43
 0 -5 -11 16.63 13.33
 -1 -4 -11 18.31 12.98
 0 -4 -11 2.64 12.28
 1 -4 -11 32.65 6.11
 2 -4 -11 30.17 11.99
 3 -4 -11 92.13 8.82
 4 -4 -11 104.18 9.98
 5 -4 -11 60.68 7.63
 6 -4 -11 29.39 11.75
 7 -4 -11 -0.43 11.07
 8 -4 -11 22.99 11.7
 9 -4 -11 7.58 12.01
 10 -4 -11 25.55 13.1
 11 -4 -11 11.26 13.38
 11 -3 -11 29.25 13.58
 10 -3 -11 2.01 11.9
 9 -3 -11 28.11 12.3
 8 -3 -11 7.18 11.22
 7 -3 -11 18.23 11.02
 6 -3 -11 32.29 11.45
 5 -3 -11 30.48 6.26
 4 -3 -11 207.59 12.49
 3 -3 -11 11.59 11.17
 2 -3 -11 120.66 9.69
 1 -3 -11 4.65 11.07
 0 -3 -11 58.42 7.66
 -1 -3 -11 -1.1 12.17
 -2 -3 -11 1.6 12.41
 -2 -2 -11 2.96 11.98
 -1 -2 -11 20.58 12.2
 0 -2 -11 2.85 10.93
 1 -2 -11 34.05 5.66
 2 -2 -11 2.24 10.27
 3 -2 -11 244.03 13.62
 4 -2 -11 5.75 10.42
 5 -2 -11 172.89 10.94
 6 -2 -11 2.94 10.27
 7 -2 -11 114.41 9.95
 8 -2 -11 3.43 11.17
 9 -2 -11 15.1 11.66
 10 -2 -11 8.14 12.02
 11 -2 -11 -2.14 12.68
 11 -1 -11 21.02 12.9
 10 -1 -11 16.65 12.37
 9 -1 -11 6.14 11.59
 8 -1 -11 171.49 11.45
 7 -1 -11 2.34 10.74
 6 -1 -11 245.02 12.63
 5 -1 -11 6.38 10
 4 -1 -11 208.61 11.73
 3 -1 -11 1.67 10.3
 2 -1 -11 30.54 10.74
 1 -1 -11 6.05 10.19
 0 -1 -11 2.3 10.48
 -1 -1 -11 16.72 11.48
 -2 -1 -11 -0.95 11.94
 -3 -1 -11 6.94 12.66
 -3 0 -11 17.39 12.42
 -2 0 -11 12.7 11.92
 -1 0 -11 5 10.8
 0 0 -11 3.71 10.17
 1 0 -11 1.77 9.8
 2 0 -11 13.64 9.86
 3 0 -11 136.68 9.45
 4 0 -11 38.81 6.05
 5 0 -11 106.06 8.66
 6 0 -11 76.94 8.04
 7 0 -11 246.16 13.1
 8 0 -11 13.38 11.1
 9 0 -11 120.14 10.32
 10 0 -11 2.72 11.63
 11 0 -11 35.34 13.63
 11 1 -11 1.85 12.59
 10 1 -11 29.47 12.72
 9 1 -11 43.62 7.18
 8 1 -11 85.2 8.59
 7 1 -11 110.34 9.49
 6 1 -11 20.42 10.67
 5 1 -11 136.46 9.46
 4 1 -11 5.83 9.69
 3 1 -11 85.29 7.82
 2 1 -11 -3.88 9.69
 1 1 -11 21.88 10.39
 0 1 -11 2.48 10.06
 -1 1 -11 3.16 10.43
 -2 1 -11 31.01 12.16
 -3 1 -11 4.04 11.94
 -4 1 -11 15.47 13.28
 -4 2 -11 -3.04 12.48
 -3 2 -11 38.88 6.62
 -2 2 -11 2.14 11.07
 -1 2 -11 19.04 11.01
 0 2 -11 -5.28 10.08
 1 2 -11 16.47 9.98
 2 2 -11 -3 9.64
 3 2 -11 -1.64 9.57
 4 2 -11 25.45 10.14
 5 2 -11 2.72 9.63
 6 2 -11 149.38 10.36
 7 2 -11 59.9 7.35
 8 2 -11 208.42 12.32
 9 2 -11 6.06 11.86
 10 2 -11 103.38 9.46
 11 2 -11 19.09 13.3
 10 3 -11 -1.3 12.78
 9 3 -11 226.29 13.35
 8 3 -11 6.99 11.22
 7 3 -11 328.01 15.14
 6 3 -11 -0.14 10.26
 5 3 -11 58.02 6.71
 4 3 -11 4.01 9.41
 3 3 -11 26.61 10.07
 2 3 -11 -2.68 9.69
 1 3 -11 -1.08 10.02
 0 3 -11 4.56 10.2
 -1 3 -11 6.25 10.35
 -2 3 -11 22.51 11.82
 -3 3 -11 12.11 11.79
 -4 3 -11 13.33 12.54
 -4 4 -11 18.23 12.59
 -3 4 -11 31.22 6.53
 -2 4 -11 37.68 6.57
 -1 4 -11 34.58 5.64
 0 4 -11 6.3 10.11
 1 4 -11 185.73 11.34
 2 4 -11 31.58 10.54
 3 4 -11 47.77 6.05
 4 4 -11 -0.15 9.41
 5 4 -11 19.48 10.54
 6 4 -11 71.62 7.76
 7 4 -11 61.02 7.58
 8 4 -11 70.89 7.73
 9 4 -11 33.52 12.9
 10 4 -11 154.66 11.79
 10 5 -11 26.99 13.3
 9 5 -11 39.26 6.74
 8 5 -11 45.08 6.47
 7 5 -11 7.01 10.75
 6 5 -11 35.89 5.84
 5 5 -11 3.62 9.86
 4 5 -11 24.15 10.34
 3 5 -11 41.99 6.18
 2 5 -11 1.96 9.5
 1 5 -11 302.9 14.13
 0 5 -11 44.13 6.22
 -1 5 -11 54.56 7.05
 -2 5 -11 18.39 11.25
 -3 5 -11 42.83 6.9
 -4 5 -11 1.25 12.09
 -5 5 -11 9.78 13.23
 -5 6 -11 1.64 12.81
 -4 6 -11 15.61 12.28
 -3 6 -11 -1.38 11.54
 -2 6 -11 36.72 6.1
 -1 6 -11 -2.6 10.72
 0 6 -11 142.93 10.36
 1 6 -11 -2.24 10.15
 2 6 -11 56.09 6.92
 3 6 -11 6.97 9.8
 4 6 -11 21.51 10.6
 5 6 -11 23.88 10.73
 6 6 -11 5.98 10.47
 7 6 -11 13.86 10.9
 8 6 -11 1.8 11.36
 9 6 -11 15.01 12.68
 9 7 -11 -0.96 12.53
 8 7 -11 22 12.3
 7 7 -11 1.66 11.12
 6 7 -11 2 10.59
 5 7 -11 47.5 6.51
 4 7 -11 5.27 10.19
 3 7 -11 141.08 9.76
 2 7 -11 -1.88 10.13
 1 7 -11 112.17 9.04
 0 7 -11 -0.6 10.59
 -1 7 -11 36.8 6.03
 -2 7 -11 1.29 10.7
 -3 7 -11 7.47 11.38
 -4 7 -11 -0.45 11.6
 -5 7 -11 -1.28 12.82
 -5 8 -11 1.08 12.71
 -4 8 -11 -2.51 12.1
 -3 8 -11 -1.36 11.53
 -2 8 -11 -1.32 11.09
 -1 8 -11 11.15 10.93
 0 8 -11 38.15 5.87
 1 8 -11 7.68 10.58
 2 8 -11 111.84 9.03
 3 8 -11 8.16 10.42
 4 8 -11 160.95 10.96
 5 8 -11 -1.94 10.93
 6 8 -11 49.77 7.24
 7 8 -11 2.12 11.64
 8 8 -11 14.36 12.68
 8 9 -11 -3.08 12.99
 7 9 -11 11.57 12.4
 6 9 -11 5.84 11.99
 5 9 -11 91.67 8.78
 4 9 -11 6.3 11.04
 3 9 -11 78.74 8.28
 2 9 -11 33.35 11.45
 1 9 -11 30.08 5.98
 0 9 -11 16.22 11.32
 -1 9 -11 1.7 10.78
 -2 9 -11 18.1 11.74
 -3 9 -11 -2.38 11.69
 -4 9 -11 -0.09 12.1
 -4 10 -11 7.37 12.28
 -3 10 -11 4.96 11.82
 -2 10 -11 3.81 11.48
 -1 10 -11 7.39 11.23
 0 10 -11 -7.6 11.16
 1 10 -11 17.37 11.08
 2 10 -11 10.83 10.98
 3 10 -11 34.33 6.47
 4 10 -11 16.12 11.41
 5 10 -11 32.31 12.78
 6 10 -11 4.68 12.36
 7 10 -11 3.56 12.61
 6 11 -11 60.15 8.11
 5 11 -11 5.75 11.79
 4 11 -11 28.78 12.23
 3 11 -11 1.62 11.33
 2 11 -11 32.41 6.05
 1 11 -11 -0.95 11.17
 0 11 -11 6.49 11.09
 -1 11 -11 3.71 11.17
 -2 11 -11 2.1 11.63
 -3 11 -11 6.8 12.23
 -4 11 -11 1.92 12.47
 -3 12 -11 -3.59 12.83
 -2 12 -11 -0.97 12.48
 -1 12 -11 -2.59 11.89
 0 12 -11 0.29 11.69
 1 12 -11 -0.88 11.94
 2 12 -11 -3.55 11.96
 3 12 -11 3.84 12
 4 12 -11 2.93 11.92
 5 12 -11 38.43 6.66
 4 13 -11 5.54 12.65
 3 13 -11 2.7 12.11
 2 13 -11 -5.79 12.32
 1 13 -11 -0.57 12.27
 0 13 -11 6.82 12.17
 -1 13 -11 3.64 12.24
 -2 13 -11 13.69 12.91
 0 14 -11 1.46 12.68
 1 14 -11 8.27 12.83
 2 14 -11 -0.8 13.03
 -1 11 -12 -0.36 13.06
 0 11 -12 2.03 12.48
 1 11 -12 2.49 12.21
 2 11 -12 46.57 6.9
 3 11 -12 1.75 12.48
 4 11 -12 62.59 7.67
 5 10 -12 23.8 13.37
 4 10 -12 2.39 12.3
 3 10 -12 25.86 13.1
 2 10 -12 0.29 12.08
 1 10 -12 11.73 12.41
 0 10 -12 3.27 11.94
 -1 10 -12 2.01 12.4
 -2 10 -12 1.31 12.63
 -2 9 -12 -6.41 12.98
 -1 9 -12 0.5 12.1
 0 9 -12 8.42 12.17
 1 9 -12 -0.04 11.68
 2 9 -12 11.32 11.99
 3 9 -12 11.29 12.25
 4 9 -12 15.16 12.43
 5 9 -12 11.86 12.38
 6 9 -12 7.38 12.53
 7 8 -12 -5.77 12.8
 6 8 -12 10.66 12.58
 5 8 -12 3.24 11.72
 4 8 -12 22.3 12.03
 3 8 -12 2.61 11.62
 2 8 -12 -0.26 11.47
 1 8 -12 19.86 11.99
 0 8 -12 11.48 11.95
 -1 8 -12 9.53 12.17
 -2 8 -12 -7.01 12.9
 -2 7 -12 5.4 12.16
 -1 7 -12 32.19 12.78
 0 7 -12 3.57 11.56
 1 7 -12 42.01 6.69
 2 7 -12 4.33 11.4
 3 7 -12 4.43 11.49
 4 7 -12 -1.66 11.21
 5 7 -12 6.08 11.66
 6 7 -12 1.98 11.81
 7 7 -12 14.35 12.58
 8 7 -12 2.58 12.98
 8 6 -12 -1.39 12.58
 7 6 -12 19.87 12.54
 6 6 -12 -5.21 11.89
 5 6 -12 -1.11 11.33
 4 6 -12 9.76 11.28
 3 6 -12 -0.81 11.11
 2 6 -12 14.02 11.24
 1 6 -12 2.61 11.26
 0 6 -12 65.75 8.16
 -1 6 -12 -5.79 11.89
 -2 6 -12 8.6 12.41
 -3 6 -12 0.2 12.75
 -3 5 -12 12.13 13.15
 -2 5 -12 -0.41 12.14
 -1 5 -12 9.46 11.87
 0 5 -12 5.99 11.68
 1 5 -12 26.68 11.96
 2 5 -12 4.02 10.67
 3 5 -12 -0.65 10.63
 4 5 -12 8.79 10.84
 5 5 -12 3.77 11.06
 6 5 -12 20.21 11.74
 7 5 -12 20.26 12.2
 8 5 -12 36.71 6.6
 9 5 -12 21.89 13.4
 9 4 -12 32.84 13.85
 8 4 -12 77.5 8.81
 7 4 -12 33.76 12.45
 6 4 -12 84.88 8.86
 5 4 -12 7.32 11.05
 4 4 -12 4.88 10.74
 3 4 -12 8.84 10.97
 2 4 -12 -0.06 10.69
 1 4 -12 10.44 11.43
 0 4 -12 2 11.07
 -1 4 -12 -0.83 11.47
 -2 4 -12 7.32 12.32
 -2 3 -12 0.59 12.32
 -1 3 -12 -0.24 11.77
 0 3 -12 1.4 11.03
 1 3 -12 0.32 10.88
 2 3 -12 1.61 10.82
 3 3 -12 35.52 11.95
 4 3 -12 7.61 10.91
 5 3 -12 44.63 6.54
 6 3 -12 3.36 11.1
 7 3 -12 148.49 11.24
 8 3 -12 -0.35 12.11
 9 3 -12 66.9 8.42
 9 2 -12 3.28 12.36
 8 2 -12 61.02 7.78
 7 2 -12 -0.04 11.66
 6 2 -12 94.91 9.17
 5 2 -12 5.05 11.07
 4 2 -12 117.21 9.42
 3 2 -12 -0.49 10.81
 2 2 -12 13.22 11.37
 1 2 -12 -0.58 11.05
 0 2 -12 1.56 11.11
 -1 2 -12 2.22 11.62
 -2 2 -12 2.7 12.22
 -2 1 -12 5.21 12.84
 -1 1 -12 8.02 12.18
 0 1 -12 3.53 11.41
 1 1 -12 5.53 11.25
 2 1 -12 -0.28 11.08
 3 1 -12 77.66 8.93
 4 1 -12 1.69 10.95
 5 1 -12 109.01 9.77
 6 1 -12 10.75 11.6
 7 1 -12 85.92 9.1
 8 1 -12 18.7 12.86
 9 1 -12 7.31 12.57
 9 0 -12 12.79 12.68
 8 0 -12 7.51 11.83
 7 0 -12 39.02 6.57
 6 0 -12 23.05 12.31
 5 0 -12 34.39 6.1
 4 0 -12 51.21 7.44
 3 0 -12 15.83 11.81
 2 0 -12 34.17 12.07
 1 0 -12 4.19 11.35
 0 0 -12 23.64 12.38
 -1 0 -12 2.03 12.21
 -1 -1 -12 6.09 12.57
 0 -1 -12 7.92 12.29
 1 -1 -12 1.09 11.9
 2 -1 -12 38.14 6.42
 3 -1 -12 21.11 12.34
 4 -1 -12 68.89 8.23
 5 -1 -12 20.6 11.81
 6 -1 -12 25.88 12.35
 7 -1 -12 3.85 11.82
 8 -1 -12 19.47 12.59
 9 -1 -12 -0.62 12.39
 9 -2 -12 -0.9 12.78
 8 -2 -12 3.67 12.1
 7 -2 -12 29.83 12.35
 6 -2 -12 -0.34 11.51
 5 -2 -12 61.26 8.15
 4 -2 -12 5.53 11.61
 3 -2 -12 79.83 8.78
 2 -2 -12 -1.29 11.98
 1 -2 -12 29.02 12.81
 0 -2 -12 -0.33 12.79
 1 -3 -12 -1.54 12.65
 2 -3 -12 52.08 7.5
 3 -3 -12 -0.16 12.1
 4 -3 -12 48.82 7.53
 5 -3 -12 6.94 11.74
 6 -3 -12 0.54 11.75
 7 -3 -12 11.02 12.05
 8 -3 -12 1.49 12.14
 9 -3 -12 16.8 13.3
 8 -4 -12 12.65 12.78
 7 -4 -12 0.83 12.2
 6 -4 -12 6.2 12.45
 5 -4 -12 2.09 12.01
 4 -4 -12 4.71 12.3
 3 -4 -12 6.87 12.24
 2 -4 -12 4.72 12.44
 3 -5 -12 0.83 12.38
 4 -5 -12 -0.09 12.11
 5 -5 -12 3.3 12.5
 6 -5 -12 11.23 12.49
 7 -5 -12 -0.68 13.35
 8 -5 -12 10.49 13.3
 6 -1 -13 14.66 12.97
 5 -1 -13 9.18 12.77
 4 -1 -13 26.33 13.73
 3 -1 -13 9.46 13.07
 2 0 -13 15.57 13.16
 3 0 -13 -6 13.17
 4 0 -13 30.99 13.48
 5 0 -13 4.34 12.68
 6 0 -13 5.92 12.7
 7 0 -13 7.47 12.88
 7 1 -13 9.85 13.03
 6 1 -13 1.1 12.4
 5 1 -13 19.35 12.89
 4 1 -13 -2.77 12.45
 3 1 -13 30.28 13.55
 2 1 -13 1.6 12.67
 1 2 -13 6.53 12.64
 2 2 -13 12.07 12.8
 3 2 -13 5.63 12.21
 4 2 -13 23.97 12.99
 5 2 -13 3.67 12.19
 6 2 -13 23.31 13.21
 7 2 -13 2.08 12.58
 7 3 -13 28.43 13.6
 6 3 -13 19.54 13.33
 5 3 -13 14.36 12.77
 4 3 -13 11.4 12.46
 3 3 -13 15.99 12.49
 2 3 -13 2.02 12.21
 1 3 -13 0.03 12.5
 1 4 -13 3.26 12.32
 2 4 -13 0.16 12.05
 3 4 -13 10.14 12.47
 4 4 -13 1.8 12.2
 5 4 -13 36.86 13.36
 6 4 -13 11.31 12.89
 7 4 -13 42.08 14.35
 6 5 -13 16.22 13.47
 5 5 -13 1.29 12.34
 4 5 -13 6.77 12.32
 3 5 -13 -4.04 12.23
 2 5 -13 -1.25 12.21
 1 5 -13 6.57 12.46
 1 6 -13 -4.63 12.85
 2 6 -13 3.39 12.27
 3 6 -13 -0.24 12.31
 4 6 -13 3.61 12.07
 5 6 -13 3.93 12.73
 6 6 -13 7.77 12.85
 5 7 -13 -0.51 12.71
 4 7 -13 -1.17 12.69
 3 7 -13 10.57 12.95
 2 7 -13 -0.45 12.38
 1 7 -13 23.17 13.6
 2 8 -13 -1.12 12.97
 3 8 -13 5.2 12.78
 4 8 -13 9.19 12.78

_iucr_refine_fcf_details
;
data_malbac
_computing_structure_refinement   'olex2.refine 1.5-dev (Bourhis et al., 2015)'
_shelx_refln_list_code            4
loop_
  _space_group_symop_id
  _space_group_symop_operation_xyz
  1  x,y,z
  2  -x,-y,-z

_space_group_crystal_system       triclinic
_space_group_IT_number            2
_space_group_name_H-M_alt         'P -1'
_space_group_name_Hall            '-P 1'
_symmetry_space_group_name_H-M    'P -1'
_symmetry_space_group_name_Hall   '-P 1'
_symmetry_Int_Tables_number       2
_cell_length_a                    10.551(2)
_cell_length_b                    14.251(3)
_cell_length_c                    9.551(2)
_cell_angle_alpha                 99.77(2)
_cell_angle_beta                  105.10(2)
_cell_angle_gamma                 104.77(2)
_cell_volume                      1297.1(5)
loop_
  _refln_index_h
  _refln_index_k
  _refln_index_l
  _refln_F_squared_calc
  _refln_F_squared_meas
  _refln_F_squared_sigma
  _refln_F_squared_weight
  _refln_observed_status
-14 -1 3 110.091 105.376 9.624 65.165 o
-14 -1 4 44.455 35.904 13.155 71.827 o
-14 -1 5 45.589 28.217 13.086 73.174 o
-14 -1 6 115.931 103.351 9.918 62.067 o
-14 0 2 74.948 61.344 7.776 109.762 o
-14 0 3 38.230 23.200 12.764 79.150 o
-14 0 4 68.852 58.263 7.335 122.011 o
-14 0 5 128.349 107.948 9.829 58.011 o
-14 0 6 142.100 137.535 10.984 46.767 o
-14 1 1 14.324 9.380 12.617 90.546 o
-14 1 2 3.858 -2.572 12.460 97.787 o
-14 1 3 2.282 2.817 11.805 108.853 o
-14 1 4 14.794 9.380 11.942 100.149 o
-14 1 5 0.031 -3.188 12.226 102.902 o
-14 1 6 6.881 -1.135 12.558 95.308 o
-14 1 7 28.245 14.250 13.204 78.675 o
-14 2 1 65.579 59.212 7.893 116.614 o
-14 2 2 44.940 38.408 5.956 197.273 o
-14 2 3 29.116 19.180 12.148 89.943 o
-14 2 4 110.080 105.102 9.839 64.078 o
-14 2 5 326.657 331.542 15.766 14.759 o
-14 2 6 175.250 175.728 11.815 35.778 o
-14 2 7 169.583 176.422 12.138 35.876 o
-14 3 1 65.557 44.355 6.788 141.400 o
-14 3 2 92.564 73.335 8.030 91.161 o
-14 3 3 120.119 107.068 9.438 62.460 o
-14 3 4 231.043 215.975 12.764 25.893 o
-14 3 5 93.161 58.429 7.815 97.394 o
-14 3 6 25.205 14.201 12.138 92.415 o
-14 3 7 19.843 13.008 12.519 89.444 o
-14 4 1 11.802 6.201 11.952 101.806 o
-14 4 2 2.050 1.311 11.590 113.312 o
-14 4 3 6.117 -0.196 11.610 111.427 o
-14 4 4 28.029 12.627 12.089 92.318 o
-14 4 5 87.369 70.322 7.785 97.576 o
-14 4 6 45.888 34.310 13.018 72.874 o
-14 4 7 6.568 6.191 12.372 97.164 o
-14 5 1 70.891 53.490 7.150 125.010 o
-14 5 2 112.174 91.713 8.656 72.386 o
-14 5 3 261.039 281.632 14.260 19.968 o
-14 5 4 253.458 272.868 14.045 20.870 o
-14 5 5 109.774 104.711 9.448 66.335 o
-14 5 6 121.366 131.901 10.406 54.253 o
-14 5 7 31.003 29.899 13.341 74.467 o
-14 6 1 65.102 47.240 6.905 138.214 o
-14 6 2 80.816 65.393 7.736 104.304 o
-14 6 3 80.457 65.041 7.864 103.298 o
-14 6 4 9.138 5.653 11.629 108.494 o
-14 6 5 6.863 -0.440 11.981 104.481 o
-14 6 6 62.379 43.103 7.169 138.977 o
-14 6 7 65.913 54.722 7.013 131.478 o
-14 7 1 27.716 20.461 12.187 89.719 o
-14 7 2 37.089 16.862 12.412 84.367 o
-14 7 3 81.384 68.699 8.040 99.534 o
-14 7 4 80.426 75.555 8.118 97.127 o
-14 7 5 1.399 2.739 11.864 108.167 o
-14 7 6 8.009 3.012 12.157 100.570 o
-14 8 1 190.885 188.579 12.519 31.692 o
-14 8 2 159.161 158.533 11.209 40.944 o
-14 8 3 108.986 111.949 9.585 64.627 o
-14 8 4 73.850 71.917 7.776 106.583 o
-14 8 5 34.343 27.092 12.744 79.944 o
-14 8 6 62.857 39.768 6.661 149.939 o
-14 9 1 24.486 20.764 12.460 87.349 o
-14 9 2 2.637 4.411 12.040 104.265 o
-14 9 3 0.080 -7.316 12.216 103.049 o
-14 9 4 41.589 24.882 12.695 78.580 o
-14 9 5 65.036 50.673 7.287 130.116 o
-14 10 1 66.856 45.460 6.876 137.737 o
-14 10 2 74.374 63.848 7.824 108.650 o
-14 10 3 5.646 3.404 12.245 99.956 o
-14 10 4 7.337 1.271 12.265 99.423 o
-14 10 5 3.825 1.379 12.578 95.782 o
-14 11 1 47.774 43.142 6.592 170.540 o
-14 11 2 37.601 40.081 13.399 70.918 o
-14 11 3 15.468 13.585 12.676 88.734 o
-13 -4 2 0.790 -1.066 12.539 97.584 o
-13 -4 3 2.284 -3.863 12.509 97.551 o
-13 -4 4 0.563 0.626 12.040 105.781 o
-13 -4 5 5.570 4.235 12.050 103.011 o
-13 -4 6 21.102 12.588 12.529 88.970 o
-13 -4 7 27.026 12.549 12.881 82.831 o
-13 -3 1 85.445 61.794 8.049 99.030 o
-13 -3 2 129.094 121.475 10.328 53.913 o
-13 -3 3 86.883 60.884 7.531 103.742 o
-13 -3 4 5.816 -0.049 11.864 106.931 o
-13 -3 5 0.201 2.308 11.561 114.487 o
-13 -3 6 6.234 4.108 12.020 103.269 o
-13 -3 7 73.342 62.860 7.922 108.625 o
-13 -3 8 108.888 108.701 9.927 63.419 o
-13 -2 1 63.440 41.157 6.602 149.416 o
-13 -2 2 54.176 37.352 12.636 73.475 o
-13 -2 3 16.732 11.981 11.668 103.157 o
-13 -2 4 25.259 18.749 11.835 95.699 o
-13 -2 5 77.649 71.036 8.040 101.262 o
-13 -2 6 192.885 207.867 12.822 29.920 o
-13 -2 7 196.174 198.389 12.676 30.297 o
-13 -2 8 135.217 132.996 11.140 48.184 o
-13 -1 1 30.449 17.674 12.118 90.106 o
-13 -1 2 2.278 -5.790 11.521 114.842 o
-13 -1 3 4.259 3.130 11.013 123.661 o
-13 -1 4 37.646 34.203 6.064 213.933 o
-13 -1 5 54.029 31.885 12.216 78.285 o
-13 -1 6 3.211 -7.277 11.893 107.462 o
-13 -1 7 2.803 2.367 11.698 110.709 o
-13 -1 8 9.291 4.568 12.490 94.768 o
-13 0 1 91.136 80.181 8.147 89.004 o
-13 0 2 15.621 7.883 11.072 115.130 o
-13 0 3 2.993 -3.981 11.033 124.762 o
-13 0 4 18.927 16.060 11.033 111.990 o
-13 0 5 190.964 204.678 12.480 30.824 o
-13 0 6 308.515 325.038 15.404 15.791 o
-13 0 7 282.767 318.808 15.463 17.044 o
-13 0 8 182.517 186.203 12.069 33.626 o
-13 0 9 55.655 43.426 7.169 146.608 o
-13 1 1 5.404 5.282 10.925 124.368 o
-13 1 2 31.044 20.676 11.101 103.543 o
-13 1 3 105.864 108.095 9.067 69.262 o
-13 1 4 271.194 294.229 14.045 19.162 o
-13 1 5 470.785 503.465 18.251 8.243 o
-13 1 6 217.663 213.960 12.725 27.253 o
-13 1 7 146.425 133.603 10.270 48.497 o
-13 1 8 53.260 55.475 7.463 136.880 o
-13 1 9 19.809 20.686 12.842 84.231 o
-13 2 1 1.654 1.007 10.622 134.987 o
-13 2 2 35.193 20.970 10.954 103.663 o
-13 2 3 47.707 40.922 6.338 178.993 o
-13 2 4 41.017 20.794 11.394 94.693 o
-13 2 5 32.508 22.075 11.698 93.969 o
-13 2 6 37.110 30.447 11.893 88.025 o
-13 2 7 56.545 36.090 6.123 173.555 o
-13 2 8 4.525 -6.494 12.529 96.517 o
-13 2 9 7.022 2.572 12.412 97.035 o
-13 3 1 0.229 -0.098 10.504 139.255 o
-13 3 2 36.822 18.544 11.140 100.672 o
-13 3 3 218.905 219.525 12.020 27.720 o
-13 3 4 570.819 657.871 20.520 5.732 o
-13 3 5 751.441 835.252 23.170 3.685 o
-13 3 6 257.030 269.396 13.673 21.046 o
-13 3 7 149.194 151.139 10.798 44.520 o
-13 3 8 5.626 5.154 11.727 108.373 o
-13 3 9 6.054 3.893 12.480 96.106 o
-13 4 1 192.080 186.985 11.570 33.208 o
-13 4 2 421.768 425.221 16.373 10.323 o
-13 4 3 532.197 600.919 19.092 6.589 o
-13 4 4 454.762 491.298 17.781 8.701 o
-13 4 5 88.819 67.740 7.864 96.721 o
-13 4 6 46.689 32.843 5.956 199.393 o
-13 4 7 59.721 57.480 7.140 134.518 o
-13 4 8 32.038 25.087 12.480 83.894 o
-13 4 9 116.151 99.830 9.438 65.010 o
-13 5 1 51.764 42.282 6.670 163.277 o
-13 5 2 1.986 1.663 10.455 138.829 o
-13 5 3 29.866 27.239 11.345 98.897 o
-13 5 4 102.686 91.018 8.842 75.417 o
-13 5 5 90.810 73.560 7.795 94.234 o
-13 5 6 2.184 -3.824 11.209 121.332 o
-13 5 7 10.380 2.866 11.443 111.949 o
-13 5 8 11.788 3.942 11.971 101.941 o
-13 5 9 14.226 8.089 12.910 86.943 o
-13 6 1 244.081 237.414 12.509 24.149 o
-13 6 2 484.596 567.000 18.857 7.457 o
-13 6 3 640.766 754.973 21.615 4.668 o
-13 6 4 354.670 393.238 16.245 12.563 o
-13 6 5 156.663 150.513 10.309 44.437 o
-13 6 6 27.150 18.681 11.825 95.091 o
-13 6 7 38.324 29.899 12.412 81.795 o
-13 6 8 47.051 33.420 12.959 73.203 o
-13 7 1 322.596 348.922 15.316 14.779 o
-13 7 2 322.758 360.346 15.228 14.591 o
-13 7 3 140.748 132.136 10.015 50.813 o
-13 7 4 37.850 22.574 11.306 96.894 o
-13 7 5 89.867 82.988 8.186 88.601 o
-13 7 6 84.941 72.484 8.030 96.089 o
-13 7 7 163.570 144.156 10.807 42.435 o
-13 7 8 137.412 116.986 10.739 50.880 o
-13 8 1 9.948 5.956 11.091 118.224 o
-13 8 2 36.612 27.826 11.297 96.404 o
-13 8 3 69.878 59.221 6.983 125.598 o
-13 8 4 4.819 -1.047 10.905 126.618 o
-13 8 5 19.365 11.707 11.248 109.062 o
-13 8 6 9.203 5.311 11.531 110.304 o
-13 8 7 0.394 -1.174 12.245 102.444 o
-13 8 8 3.291 5.516 12.646 94.278 o
-13 9 1 341.484 406.422 16.676 12.618 o
-13 9 2 316.752 355.417 15.541 14.781 o
-13 9 3 150.254 159.678 10.905 43.210 o
-13 9 4 75.024 54.546 7.062 121.802 o
-13 9 5 59.258 47.152 6.582 151.345 o
-13 9 6 147.339 153.770 10.954 44.190 o
-13 9 7 159.923 156.147 11.453 40.421 o
-13 10 1 85.514 88.260 8.421 87.586 o
-13 10 2 45.906 33.508 12.333 79.529 o
-13 10 3 66.269 56.444 7.179 127.661 o
-13 10 4 106.070 103.244 9.331 68.601 o
-13 10 5 152.460 159.238 10.866 42.942 o
-13 10 6 139.639 137.358 10.827 47.800 o
-13 10 7 98.223 81.834 9.125 77.462 o
-13 11 1 19.482 10.984 11.776 100.506 o
-13 11 2 10.868 3.130 11.492 110.757 o
-13 11 3 18.364 11.570 11.766 101.001 o
-13 11 4 4.776 0.880 11.795 108.398 o
-13 11 5 0.058 1.927 12.040 105.725 o
-13 11 6 8.747 1.702 12.832 90.558 o
-13 12 1 78.282 75.252 8.186 97.912 o
-13 12 2 68.362 44.443 6.758 138.584 o
-13 12 3 41.961 26.975 12.549 79.647 o
-13 12 4 142.452 120.379 10.416 50.441 o
-13 12 5 172.035 178.437 12.304 35.071 o
-13 13 1 60.387 50.204 7.218 136.389 o
-13 13 2 76.359 67.535 8.235 101.197 o
-13 13 3 121.375 128.351 10.778 53.221 o
-13 13 4 149.299 157.653 12.030 40.611 o
-12 -7 3 113.181 104.506 10.035 62.166 o
-12 -7 4 162.683 176.569 12.099 36.927 o
-12 -7 5 118.329 122.257 10.035 57.947 o
-12 -7 6 66.746 47.270 6.944 135.698 o
-12 -6 2 44.695 30.339 13.037 73.575 o
-12 -6 3 32.579 24.774 12.480 83.767 o
-12 -6 4 3.402 2.142 12.079 103.742 o
-12 -6 5 7.843 0.460 11.883 105.676 o
-12 -6 6 6.897 2.807 12.001 103.591 o
-12 -6 7 48.416 38.545 13.331 68.951 o
-12 -6 8 31.198 17.263 13.419 75.289 o
-12 -5 1 17.266 5.643 12.412 93.004 o
-12 -5 2 66.508 52.854 7.277 127.705 o
-12 -5 3 164.914 170.847 11.570 38.166 o
-12 -5 4 110.377 116.017 9.536 63.722 o
-12 -5 5 46.091 36.032 12.118 81.252 o
-12 -5 6 5.033 -0.391 11.776 108.828 o
-12 -5 7 0.211 0.919 11.766 110.831 o
-12 -5 8 5.193 -3.276 12.793 92.429 o
-12 -4 1 241.589 251.635 13.879 22.523 o
-12 -4 2 247.175 260.212 13.947 21.778 o
-12 -4 3 273.542 288.674 14.192 19.088 o
-12 -4 4 112.871 114.364 9.399 63.847 o
-12 -4 5 101.922 89.883 8.431 78.761 o
-12 -4 6 82.146 64.014 7.805 103.101 o
-12 -4 7 152.859 160.793 11.482 41.151 o
-12 -4 8 167.248 211.583 12.930 32.419 o
-12 -4 9 208.756 250.021 14.280 24.632 o
-12 -3 1 15.401 7.130 11.414 109.137 o
-12 -3 2 3.516 5.448 10.837 127.367 o
-12 -3 3 3.749 2.005 10.612 133.601 o
-12 -3 4 15.492 7.932 10.729 122.002 o
-12 -3 5 107.522 85.541 8.235 78.447 o
-12 -3 6 154.953 135.843 10.397 46.033 o
-12 -3 7 137.914 143.168 10.954 47.144 o
-12 -3 8 92.322 68.474 8.313 90.236 o
-12 -3 9 33.788 22.085 13.086 77.284 o
-12 -2 1 212.340 226.919 12.500 27.418 o
-12 -2 2 125.851 136.273 9.634 55.501 o
-12 -2 3 43.704 29.508 10.896 98.160 o
-12 -2 4 5.615 -0.978 10.485 136.220 o
-12 -2 5 5.526 -2.993 10.720 130.523 o
-12 -2 6 22.987 12.187 10.827 114.594 o
-12 -2 7 54.717 44.551 7.042 149.646 o
-12 -2 8 86.855 65.814 8.323 94.148 o
-12 -2 9 120.675 102.393 10.221 59.307 o
-12 -2 10 44.980 32.491 13.683 67.647 o
-12 -1 1 222.950 237.385 12.519 25.932 o
-12 -1 2 169.232 179.943 10.720 38.582 o
-12 -1 3 197.786 199.905 11.179 32.290 o
-12 -1 4 157.651 172.295 10.377 41.996 o
-12 -1 5 389.226 415.626 16.040 11.327 o
-12 -1 6 382.975 453.262 16.666 10.843 o
-12 -1 7 332.767 375.486 15.874 13.694 o
-12 -1 8 296.502 334.907 15.297 16.150 o
-12 -1 9 173.994 181.166 12.050 35.118 o
-12 -1 10 90.363 89.571 9.262 78.244 o
-12 0 1 11.656 8.871 10.143 137.567 o
-12 0 2 59.466 51.172 6.093 157.900 o
-12 0 3 177.387 161.859 9.966 40.307 o
-12 0 4 171.372 155.277 9.761 42.460 o
-12 0 5 275.137 261.679 12.901 20.704 o
-12 0 6 51.764 31.190 11.023 92.327 o
-12 0 7 61.152 39.817 6.103 163.659 o
-12 0 8 45.032 34.173 11.942 83.832 o
-12 0 9 23.854 16.881 12.108 92.816 o
-12 0 10 27.921 20.441 12.861 81.609 o
-12 1 1 31.228 19.845 10.054 121.833 o
-12 1 2 18.078 6.758 9.741 143.650 o
-12 1 3 15.572 11.590 9.614 147.107 o
-12 1 4 7.673 -2.279 9.947 149.251 o
-12 1 5 135.789 135.843 9.419 53.656 o
-12 1 6 135.328 113.572 9.233 57.609 o
-12 1 7 125.092 115.215 9.399 59.763 o
-12 1 8 131.339 126.140 9.966 54.114 o
-12 1 9 33.381 25.547 12.167 87.016 o
-12 1 10 34.327 24.168 13.086 76.843 o
-12 2 1 149.687 156.489 9.800 46.643 o
-12 2 2 240.864 245.444 11.971 24.592 o
-12 2 3 256.281 285.427 12.725 21.295 o
-12 2 4 382.535 411.185 15.219 11.794 o
-12 2 5 455.076 509.422 17.038 8.660 o
-12 2 6 382.568 426.815 15.923 11.387 o
-12 2 7 352.609 379.330 15.678 13.039 o
-12 2 8 246.224 284.791 13.957 21.022 o
-12 2 9 103.923 116.594 9.741 64.732 o
-12 2 10 109.900 123.940 10.543 57.814 o
-12 3 1 129.401 121.445 8.822 59.883 o
-12 3 2 167.286 143.980 9.262 45.620 o
-12 3 3 184.733 153.369 9.614 40.488 o
-12 3 4 169.907 149.897 9.751 43.285 o
-12 3 5 19.084 11.991 9.888 137.073 o
-12 3 6 58.689 39.856 5.898 172.082 o
-12 3 7 54.732 39.621 6.025 175.995 o
-12 3 8 52.909 32.980 11.815 82.532 o
-12 3 9 53.326 37.900 6.485 168.600 o
-12 3 10 56.969 37.685 13.360 66.681 o
-12 4 1 3.608 -0.088 9.438 169.060 o
-12 4 2 40.342 29.537 9.927 114.828 o
-12 4 3 93.975 79.995 7.199 95.358 o
-12 4 4 316.192 291.031 13.155 17.366 o
-12 4 5 227.573 212.385 11.434 27.902 o
-12 4 6 98.475 76.337 7.648 89.964 o
-12 4 7 52.826 44.785 6.230 169.979 o
-12 4 8 37.706 27.004 11.668 91.232 o
-12 4 9 15.062 14.436 12.050 97.425 o
-12 4 10 17.080 11.825 12.773 87.252 o
-12 5 1 304.195 345.215 14.084 16.186 o
-12 5 2 322.353 363.114 14.231 14.971 o
-12 5 3 325.876 357.764 14.182 14.957 o
-12 5 4 405.424 447.530 15.893 10.555 o
-12 5 5 230.081 226.919 12.020 26.303 o
-12 5 6 337.589 382.675 15.326 13.611 o
-12 5 7 280.767 346.330 14.769 16.885 o
-12 5 8 228.601 244.964 13.595 24.009 o
-12 5 9 101.106 111.088 9.751 66.594 o
-12 5 10 89.598 84.465 9.262 79.741 o
-12 6 1 44.848 34.985 5.203 225.792 o
-12 6 2 34.136 29.234 9.878 119.969 o
-12 6 3 5.088 8.783 9.262 169.184 o
-12 6 4 38.804 23.473 10.005 116.470 o
-12 6 5 44.810 32.716 5.321 224.788 o
-12 6 6 152.807 146.611 10.211 45.885 o
-12 6 7 68.715 57.735 7.032 126.777 o
-12 6 8 76.573 59.583 7.287 115.211 o
-12 6 9 10.944 8.372 12.138 98.791 o
-12 7 1 88.570 81.384 7.394 96.765 o
-12 7 2 149.266 153.594 9.634 47.519 o
-12 7 3 220.883 213.481 11.287 28.711 o
-12 7 4 92.120 72.885 7.306 98.034 o
-12 7 5 72.677 55.974 6.573 130.317 o
-12 7 6 14.963 9.135 10.602 124.640 o
-12 7 7 68.922 49.715 6.719 135.601 o
-12 7 8 16.820 13.126 11.707 102.248 o
-12 7 9 81.840 71.594 8.323 95.447 o
-12 8 1 155.576 181.117 10.495 41.297 o
-12 8 2 363.546 354.448 14.514 13.491 o
-12 8 3 220.789 226.626 11.903 27.326 o
-12 8 4 324.997 319.385 14.377 15.703 o
-12 8 5 269.426 308.255 13.839 19.002 o
-12 8 6 339.071 388.289 15.962 13.233 o
-12 8 7 179.660 193.832 11.893 33.815 o
-12 8 8 101.296 80.719 8.225 82.771 o
-12 8 9 82.825 61.178 7.844 103.202 o
-12 9 1 6.876 2.895 9.869 150.993 o
-12 9 2 24.353 16.695 10.123 126.230 o
-12 9 3 5.689 -3.306 10.240 142.567 o
-12 9 4 103.259 96.847 8.372 76.906 o
-12 9 5 60.032 53.324 7.130 136.602 o
-12 9 6 84.023 88.710 8.177 90.386 o
-12 9 7 0.556 0.352 11.336 119.353 o
-12 9 8 0.293 -7.600 12.685 95.499 o
-12 10 1 166.661 156.176 10.602 41.292 o
-12 10 2 170.746 137.310 9.712 44.468 o
-12 10 3 84.392 64.562 6.934 110.691 o
-12 10 4 15.414 8.891 10.602 124.439 o
-12 10 5 50.447 43.416 6.279 173.786 o
-12 10 6 33.418 25.263 11.962 89.566 o
-12 10 7 89.110 79.272 8.587 86.674 o
-12 10 8 75.573 56.248 7.394 116.125 o
-12 11 1 161.370 156.294 10.416 42.696 o
-12 11 2 152.428 161.937 10.583 43.432 o
-12 11 3 144.706 154.621 10.504 45.902 o
-12 11 4 149.765 170.397 10.739 42.735 o
-12 11 5 185.778 190.330 12.069 32.954 o
-12 11 6 78.972 61.813 7.658 107.884 o
-12 11 7 103.647 83.125 9.428 72.837 o
-12 12 1 4.849 -2.474 11.179 120.598 o
-12 12 2 16.952 9.204 11.072 114.090 o
-12 12 3 28.936 20.148 11.385 100.354 o
-12 12 4 80.327 59.564 7.326 111.603 o
-12 12 5 6.519 3.785 11.756 107.762 o
-12 12 6 0.109 3.648 12.059 105.038 o
-12 13 1 73.535 55.524 7.257 120.063 o
-12 13 2 16.353 12.059 11.424 107.374 o
-12 13 3 10.311 6.074 11.678 107.032 o
-12 13 4 26.471 16.402 12.353 88.761 o
-12 13 5 104.086 81.648 9.145 74.827 o
-12 13 6 122.939 118.629 10.240 56.280 o
-12 14 1 84.477 90.568 8.734 84.927 o
-12 14 2 48.481 43.504 6.690 166.776 o
-12 14 3 98.865 106.804 9.644 68.788 o
-12 14 4 109.683 101.591 9.878 64.587 o
-12 15 1 10.228 6.964 12.157 99.017 o
-12 15 2 10.000 6.641 12.607 92.516 o
-12 15 3 15.427 -1.731 13.321 82.697 o
-11 -9 4 38.390 33.019 13.341 72.142 o
-11 -9 5 58.081 50.184 7.247 138.409 o
-11 -9 6 97.427 102.960 9.653 69.978 o
-11 -8 1 62.696 51.730 7.961 121.265 o
-11 -8 2 40.603 35.562 13.233 72.200 o
-11 -8 3 38.445 34.340 12.578 79.292 o
-11 -8 4 66.361 51.221 7.091 131.602 o
-11 -8 5 112.123 106.100 9.653 64.199 o
-11 -8 6 107.132 100.720 9.614 67.067 o
-11 -8 7 63.155 50.165 7.218 133.445 o
-11 -8 8 51.622 43.093 6.866 158.449 o
-11 -7 1 2.799 -0.156 12.167 102.884 o
-11 -7 2 2.683 3.159 11.424 115.865 o
-11 -7 3 3.158 1.682 11.179 121.034 o
-11 -7 4 0.124 -5.193 11.610 114.072 o
-11 -7 5 0.086 -0.372 11.619 113.898 o
-11 -7 6 16.756 7.609 11.619 104.895 o
-11 -7 7 1.064 -3.795 12.099 104.690 o
-11 -7 8 0.038 2.210 11.962 107.060 o
-11 -7 9 0.032 0.978 12.392 99.993 o
-11 -6 1 73.510 67.056 7.942 106.701 o
-11 -6 2 43.077 36.188 12.148 81.958 o
-11 -6 3 102.094 107.508 9.067 70.844 o
-11 -6 4 181.894 168.216 10.817 37.313 o
-11 -6 5 221.415 209.060 12.529 27.369 o
-11 -6 6 195.843 184.638 11.717 32.640 o
-11 -6 7 66.761 47.142 7.081 133.491 o
-11 -6 8 18.911 16.373 12.030 95.869 o
-11 -6 9 11.878 12.549 12.294 95.351 o
-11 -5 1 56.232 36.746 6.123 173.531 o
-11 -5 2 68.503 54.879 6.661 134.123 o
-11 -5 3 190.540 194.105 11.316 33.366 o
-11 -5 4 215.348 208.326 11.874 28.833 o
-11 -5 5 161.899 147.159 10.651 42.863 o
-11 -5 6 112.062 106.765 9.096 67.028 o
-11 -5 7 45.819 39.220 5.810 199.030 o
-11 -5 8 9.749 7.629 11.453 110.953 o
-11 -5 9 67.437 65.540 7.932 112.022 o
-11 -5 10 81.030 79.741 9.027 87.003 o
-11 -4 1 2.990 -1.330 10.465 138.458 o
-11 -4 2 0.065 1.565 9.869 157.231 o
-11 -4 3 1.626 -2.983 10.113 149.158 o
-11 -4 4 30.126 10.661 10.152 123.747 o
-11 -4 5 34.038 21.263 10.514 111.294 o
-11 -4 6 3.458 -0.401 10.064 149.177 o
-11 -4 7 2.400 2.073 10.387 140.216 o
-11 -4 8 0.582 -0.088 10.720 133.513 o
-11 -4 9 7.446 -1.193 11.746 108.343 o
-11 -4 10 0.386 -1.506 12.421 99.567 o
-11 -3 1 148.194 153.271 9.751 47.460 o
-11 -3 2 252.556 261.963 12.460 22.593 o
-11 -3 3 404.883 404.613 15.101 11.301 o
-11 -3 4 545.811 613.106 18.788 6.391 o
-11 -3 5 171.670 177.498 10.475 38.889 o
-11 -3 6 67.965 74.684 7.678 111.206 o
-11 -3 7 51.937 61.471 6.719 148.888 o
-11 -3 8 84.394 87.028 8.333 89.299 o
-11 -3 9 157.087 155.061 11.248 41.508 o
-11 -3 10 140.564 127.901 10.495 49.740 o
-11 -2 1 112.138 98.324 8.431 72.328 o
-11 -2 2 279.511 306.592 13.468 18.719 o
-11 -2 3 327.291 316.421 13.429 16.101 o
-11 -2 4 150.404 126.267 8.969 52.569 o
-11 -2 5 116.416 99.645 8.255 71.250 o
-11 -2 6 43.138 34.917 5.497 220.116 o
-11 -2 7 93.254 97.845 8.216 82.576 o
-11 -2 8 192.139 176.373 11.453 34.092 o
-11 -2 9 108.036 98.217 8.988 70.791 o
-11 -2 10 81.404 76.406 8.656 91.091 o
-11 -2 11 24.916 18.671 13.008 81.115 o
-11 -1 1 7.060 4.372 9.233 170.447 o
-11 -1 2 15.757 6.817 9.213 160.782 o
-11 -1 3 88.733 82.763 7.267 97.334 o
-11 -1 4 41.450 38.477 5.418 222.605 o
-11 -1 5 4.576 5.624 9.008 180.739 o
-11 -1 6 27.551 19.845 9.517 135.915 o
-11 -1 7 0.009 -2.729 9.790 160.473 o
-11 -1 8 6.450 3.032 10.152 143.285 o
-11 -1 9 11.737 7.238 10.974 119.300 o
-11 -1 10 1.795 -0.567 11.512 115.256 o
-11 -1 11 1.642 1.809 12.314 100.558 o
-11 0 1 517.715 516.268 16.813 7.613 o
-11 0 2 782.933 803.162 20.334 3.716 o
-11 0 3 793.161 842.255 20.842 3.549 o
-11 0 4 82.162 92.133 7.453 96.921 o
-11 0 5 261.155 297.359 12.382 20.820 o
-11 0 6 153.501 154.719 9.790 46.041 o
-11 0 7 250.943 263.968 12.470 22.629 o
-11 0 8 382.117 388.260 15.962 11.919 o
-11 0 9 182.347 161.272 11.326 36.764 o
-11 0 10 95.481 85.443 8.832 80.013 o
-11 0 11 42.687 34.565 13.331 70.922 o
-11 1 1 365.678 388.749 14.280 12.921 o
-11 1 2 369.306 344.805 13.458 13.816 o
-11 1 3 78.940 60.845 6.455 122.976 o
-11 1 4 27.561 19.874 8.871 151.815 o
-11 1 5 115.745 116.252 8.372 67.594 o
-11 1 6 211.517 210.234 11.003 30.278 o
-11 1 7 327.439 339.093 14.201 15.265 o
-11 1 8 242.602 259.019 13.028 22.951 o
-11 1 9 66.224 53.099 7.032 131.695 o
-11 1 10 43.372 37.049 12.392 79.184 o
-11 1 11 25.085 20.559 12.617 85.286 o
-11 2 1 178.373 164.871 9.722 40.375 o
-11 2 2 135.683 126.952 8.509 58.278 o
-11 2 3 135.066 144.127 8.783 54.936 o
-11 2 4 0.448 4.020 8.137 227.851 o
-11 2 5 6.936 4.108 8.597 195.286 o
-11 2 6 2.955 1.594 9.018 184.655 o
-11 2 7 20.148 12.920 10.152 129.827 o
-11 2 8 76.647 79.096 8.089 98.725 o
-11 2 9 19.593 12.490 10.944 114.192 o
-11 2 10 0.036 -2.240 11.629 113.728 o
-11 2 11 0.124 -2.093 12.402 99.970 o
-11 3 1 693.933 711.117 18.691 4.610 o
-11 3 2 153.579 173.654 9.595 44.554 o
-11 3 3 70.075 71.379 6.504 125.951 o
-11 3 4 207.995 207.026 10.524 31.527 o
-11 3 5 587.420 626.358 17.898 5.947 o
-11 3 6 782.110 827.985 20.813 3.640 o
-11 3 7 542.880 558.589 17.996 6.837 o
-11 3 8 220.781 213.422 11.883 28.002 o
-11 3 9 60.199 49.998 6.621 147.532 o
-11 3 10 16.569 14.583 11.795 100.664 o
-11 3 11 38.748 28.608 13.282 73.160 o
-11 4 1 147.855 136.420 8.597 53.078 o
-11 4 2 30.354 28.266 4.656 312.590 o
-11 4 3 251.238 269.465 11.698 23.033 o
-11 4 4 445.635 506.556 15.952 9.044 o
-11 4 5 554.782 567.137 17.038 6.734 o
-11 4 6 253.069 265.670 12.421 22.451 o
-11 4 7 128.490 96.916 8.568 65.491 o
-11 4 8 25.053 12.216 10.534 118.942 o
-11 4 9 58.090 49.255 6.876 145.828 o
-11 4 10 34.697 17.556 12.392 85.281 o
-11 4 11 18.312 11.013 13.086 83.190 o
-11 5 1 63.865 46.917 5.555 165.044 o
-11 5 2 2.366 3.814 8.079 227.783 o
-11 5 3 10.242 4.763 8.284 203.606 o
-11 5 4 26.482 20.970 4.783 340.782 o
-11 5 5 96.284 83.458 7.600 89.545 o
-11 5 6 111.069 120.800 8.881 65.946 o
-11 5 7 85.066 84.455 7.854 93.891 o
-11 5 8 12.813 10.172 10.289 132.731 o
-11 5 9 5.598 0.929 10.944 125.041 o
-11 5 10 31.079 21.723 12.245 87.564 o
-11 6 1 125.141 136.019 8.656 59.595 o
-11 6 2 110.491 116.115 8.020 71.550 o
-11 6 3 587.620 648.189 17.908 5.832 o
-11 6 4 854.438 871.117 21.048 3.203 o
-11 6 5 782.720 825.442 21.116 3.632 o
-11 6 6 379.217 366.870 14.700 12.707 o
-11 6 7 143.592 136.136 9.702 50.672 o
-11 6 8 22.444 18.436 10.622 116.959 o
-11 6 9 43.226 35.973 12.343 79.904 o
-11 6 10 237.787 289.261 15.033 20.535 o
-11 7 1 50.733 45.441 5.604 188.539 o
-11 7 2 353.951 358.077 13.595 14.089 o
-11 7 3 551.198 571.479 17.126 6.743 o
-11 7 4 389.378 374.792 14.231 12.406 o
-11 7 5 85.790 62.977 6.837 111.265 o
-11 7 6 32.852 22.975 9.937 121.913 o
-11 7 7 37.584 25.058 10.475 108.811 o
-11 7 8 39.215 30.124 11.385 93.577 o
-11 7 9 98.071 85.932 8.734 79.389 o
-11 7 10 71.169 59.270 8.470 104.844 o
-11 8 1 2.457 -0.646 8.538 207.317 o
-11 8 2 4.978 3.188 8.675 195.262 o
-11 8 3 54.508 38.115 5.370 194.451 o
-11 8 4 219.278 215.877 11.600 28.374 o
-11 8 5 137.180 130.493 8.969 55.614 o
-11 8 6 33.897 24.119 10.201 115.955 o
-11 8 7 2.065 1.721 10.123 147.886 o
-11 8 8 15.793 14.690 11.248 110.080 o
-11 8 9 51.822 32.168 6.739 169.098 o
-11 9 1 297.083 313.517 12.989 17.858 o
-11 9 2 846.230 917.477 22.085 3.113 o
-11 9 3 768.899 822.537 20.872 3.719 o
-11 9 4 486.427 542.020 17.214 7.840 o
-11 9 5 147.409 148.616 9.693 48.331 o
-11 9 6 67.489 63.603 6.964 126.074 o
-11 9 7 29.258 27.229 11.120 102.515 o
-11 9 8 309.438 361.422 16.118 14.687 o
-11 9 9 324.198 381.257 17.742 13.146 o
-11 10 1 334.991 365.862 14.534 14.306 o
-11 10 2 211.389 199.739 10.827 31.144 o
-11 10 3 30.849 25.205 10.211 117.370 o
-11 10 4 9.038 6.367 9.624 154.886 o
-11 10 5 9.170 5.565 9.888 147.464 o
-11 10 6 37.842 32.217 11.111 97.373 o
-11 10 7 69.996 47.142 6.758 135.209 o
-11 10 8 175.445 200.649 12.764 32.387 o
-11 11 1 30.141 22.662 10.064 121.426 o
-11 11 2 183.281 183.034 10.651 36.296 o
-11 11 3 134.683 134.796 9.536 53.672 o
-11 11 4 22.785 21.459 10.436 119.394 o
-11 11 5 0.138 1.946 10.113 149.551 o
-11 11 6 3.680 -0.812 10.984 125.483 o
-11 11 7 17.833 7.560 11.981 98.711 o
-11 11 8 67.587 52.786 8.255 112.592 o
-11 12 1 302.007 352.209 14.749 15.810 o
-11 12 2 327.435 357.353 14.759 14.665 o
-11 12 3 68.422 67.251 7.120 121.236 o
-11 12 4 70.396 54.664 6.661 132.170 o
-11 12 5 30.249 20.539 11.326 100.538 o
-11 12 6 242.912 274.199 14.094 21.471 o
-11 12 7 411.408 478.936 19.522 9.274 o
-11 13 1 32.337 23.131 11.120 102.016 o
-11 13 2 6.829 5.066 10.495 133.525 o
-11 13 3 1.037 1.467 10.475 139.012 o
-11 13 4 90.652 84.485 8.255 87.184 o
-11 13 5 35.591 32.383 12.226 84.353 o
-11 13 6 189.999 216.581 13.634 28.576 o
-11 13 7 87.037 89.620 10.182 72.971 o
-11 14 1 58.300 40.110 6.416 160.995 o
-11 14 2 29.948 17.605 11.414 100.034 o
-11 14 3 0.968 -1.086 11.169 122.801 o
-11 14 4 11.381 6.670 11.649 106.948 o
-11 14 5 41.398 34.887 13.047 73.768 o
-11 14 6 47.473 33.313 13.967 64.753 o
-11 15 1 57.880 53.549 6.974 141.690 o
-11 15 2 49.931 44.521 6.377 171.331 o
-11 15 3 32.492 21.488 12.363 85.707 o
-11 15 4 164.262 165.448 11.786 38.206 o
-11 15 5 178.507 194.409 12.832 32.275 o
-11 16 1 2.530 -0.010 12.059 104.812 o
-11 16 2 17.083 16.089 12.284 93.011 o
-11 16 3 26.181 19.317 12.950 81.308 o
-10 -10 2 86.016 80.729 8.881 85.443 o
-10 -10 3 29.656 20.031 12.646 83.572 o
-10 -10 4 33.780 25.439 12.705 80.787 o
-10 -10 5 37.248 25.400 12.783 78.912 o
-10 -10 6 122.878 113.699 10.172 57.273 o
-10 -10 7 122.431 126.668 10.543 54.104 o
-10 -9 1 21.159 13.536 12.226 92.816 o
-10 -9 2 0.061 0.557 11.590 114.362 o
-10 -9 3 1.426 1.105 11.160 122.494 o
-10 -9 4 15.943 7.560 11.463 107.929 o
-10 -9 5 47.845 30.809 12.177 80.937 o
-10 -9 6 60.108 51.240 7.404 132.932 o
-10 -9 7 20.590 19.395 12.421 89.389 o
-10 -9 8 8.651 5.115 12.372 96.629 o
-10 -9 9 0.006 0.831 12.470 98.777 o
-10 -8 1 78.141 51.446 7.570 113.722 o
-10 -8 2 87.612 72.327 7.521 99.285 o
-10 -8 3 4.178 4.235 10.592 133.109 o
-10 -8 4 13.819 11.257 10.847 119.605 o
-10 -8 5 23.624 6.778 11.169 109.537 o
-10 -8 6 142.603 105.053 9.536 55.560 o
-10 -8 7 150.788 128.321 10.514 47.360 o
-10 -8 8 100.540 101.082 9.252 71.609 o
-10 -8 9 27.792 25.664 12.930 80.125 o
-10 -7 1 47.972 33.420 5.731 202.989 o
-10 -7 2 12.479 11.698 10.651 124.325 o
-10 -7 3 57.093 59.642 7.032 138.057 o
-10 -7 4 243.721 229.629 11.864 25.126 o
-10 -7 5 496.177 550.891 18.534 7.450 o
-10 -7 6 417.903 471.757 17.556 9.640 o
-10 -7 7 252.922 320.725 14.505 19.132 o
-10 -7 8 48.667 50.526 7.022 153.979 o
-10 -7 9 5.673 10.592 11.659 108.407 o
-10 -7 10 43.619 38.506 6.445 185.285 o
-10 -6 1 0.188 -1.203 10.045 152.310 o
-10 -6 2 27.911 12.588 10.005 127.651 o
-10 -6 3 157.185 133.466 9.076 49.617 o
-10 -6 4 203.986 190.800 11.150 32.130 o
-10 -6 5 63.322 49.040 6.670 143.353 o
-10 -6 6 2.574 3.130 10.074 148.367 o
-10 -6 7 0.804 0.988 10.123 149.122 o
-10 -6 8 9.748 -4.235 11.003 121.741 o
-10 -6 9 0.020 -2.494 11.375 118.876 o
-10 -6 10 37.696 22.642 12.588 81.268 o
-10 -5 1 6.843 1.809 9.526 162.064 o
-10 -5 2 1.551 -3.942 9.614 164.962 o
-10 -5 3 50.570 28.833 5.184 219.600 o
-10 -5 4 315.284 316.832 13.800 16.465 o
-10 -5 5 498.231 511.123 17.351 7.878 o
-10 -5 6 301.192 333.596 14.250 16.505 o
-10 -5 7 95.711 101.747 8.343 79.495 o
-10 -5 8 19.318 14.466 10.358 125.407 o
-10 -5 9 17.360 13.673 11.042 113.255 o
-10 -5 10 3.854 1.027 11.561 113.135 o
-10 -5 11 37.085 26.398 13.008 76.536 o
-10 -4 1 111.419 121.631 8.822 65.962 o
-10 -4 2 486.064 519.065 16.627 8.111 o
-10 -4 3 965.445 1027.410 23.151 2.499 o
-10 -4 4 1175.970 1237.370 25.430 1.764 o
-10 -4 5 562.234 624.089 18.476 6.177 o
-10 -4 6 149.894 157.917 9.644 46.874 o
-10 -4 7 9.948 14.426 9.526 153.313 o
-10 -4 8 53.833 48.365 6.514 159.377 o
-10 -4 9 219.644 243.996 13.106 25.291 o
-10 -4 10 162.487 192.247 12.216 35.605 o
-10 -4 11 135.387 151.266 11.531 45.048 o
-10 -3 1 166.657 165.742 9.829 42.206 o
-10 -3 2 264.999 271.489 12.441 21.387 o
-10 -3 3 190.533 152.763 9.438 39.864 o
-10 -3 4 26.090 16.402 9.164 147.290 o
-10 -3 5 0.035 2.396 8.362 217.958 o
-10 -3 6 30.870 19.786 9.360 136.727 o
-10 -3 7 0.703 -0.333 9.008 188.717 o
-10 -3 8 167.040 161.732 10.250 41.544 o
-10 -3 9 60.122 60.552 7.247 130.719 o
-10 -3 10 10.301 6.905 11.424 111.403 o
-10 -3 11 5.365 -1.271 12.500 96.686 o
-10 -2 1 89.990 85.150 7.580 93.010 o
-10 -2 2 348.892 375.027 13.673 13.936 o
-10 -2 3 913.892 973.471 21.791 2.771 o
-10 -2 4 695.484 793.518 19.375 4.287 o
-10 -2 5 82.675 80.680 6.895 106.016 o
-10 -2 6 32.813 26.525 4.480 315.559 o
-10 -2 7 44.837 35.709 5.174 225.873 o
-10 -2 8 17.386 9.614 9.829 140.788 o
-10 -2 9 228.591 208.454 12.030 27.303 o
-10 -2 10 162.100 167.620 11.531 38.947 o
-10 -2 11 106.641 101.112 9.252 69.236 o
-10 -1 1 1037.170 1102.790 22.906 2.215 o
-10 -1 2 1232.870 1199.730 23.522 1.718 o
-10 -1 3 1226.610 1285.870 24.109 1.654 o
-10 -1 4 79.304 68.846 6.612 116.925 o
-10 -1 5 46.529 54.155 5.663 186.729 o
-10 -1 6 100.279 118.687 8.235 74.186 o
-10 -1 7 418.416 456.851 15.805 10.162 o
-10 -1 8 476.037 566.413 17.859 7.724 o
-10 -1 9 324.261 354.370 15.121 14.694 o
-10 -1 10 133.918 154.416 10.690 47.634 o
-10 -1 11 33.280 28.823 12.441 83.313 o
-10 0 1 111.107 80.778 7.110 85.335 o
-10 0 2 0.928 2.162 7.893 242.804 o
-10 0 3 34.559 30.731 4.890 277.573 o
-10 0 4 31.704 18.026 7.971 174.005 o
-10 0 5 0.178 3.374 7.629 259.932 o
-10 0 6 105.266 92.945 7.287 84.019 o
-10 0 7 221.305 193.567 10.680 30.530 o
-10 0 8 22.721 10.720 9.790 137.084 o
-10 0 9 2.696 5.477 10.084 147.092 o
-10 0 10 11.343 5.878 11.052 118.296 o
-10 0 11 0.691 2.660 11.375 117.919 o
-10 1 1 839.381 908.548 20.187 3.212 o
-10 1 2 1023.500 1045.260 21.253 2.347 o
-10 1 3 318.838 381.863 13.037 15.212 o
-10 1 4 32.979 32.882 4.802 283.854 o
-10 1 5 158.812 154.817 8.920 47.163 o
-10 1 6 49.370 41.880 5.428 199.750 o
-10 1 7 325.366 329.205 13.409 15.910 o
-10 1 8 539.491 599.931 18.632 6.557 o
-10 1 9 426.982 518.273 17.263 9.057 o
-10 1 10 109.157 120.252 9.380 64.207 o
-10 1 11 22.581 16.285 12.099 93.535 o
-10 2 1 805.447 882.913 19.649 3.433 o
-10 2 2 201.014 223.369 10.084 31.973 o
-10 2 3 10.308 -2.308 7.423 253.384 o
-10 2 4 43.013 54.292 5.604 195.146 o
-10 2 5 550.554 589.847 16.441 6.704 o
-10 2 6 620.979 680.748 18.299 5.335 o
-10 2 7 946.756 1057.300 23.209 2.509 o
-10 2 8 355.849 377.755 14.788 13.263 o
-10 2 9 72.696 62.273 7.101 119.852 o
-10 2 10 34.944 30.369 11.453 94.471 o
-10 2 11 9.975 7.961 11.756 105.428 o
-10 3 1 60.144 53.412 5.526 166.390 o
-10 3 2 94.925 87.096 6.631 97.034 o
-10 3 3 5.970 -1.780 7.463 261.266 o
-10 3 4 213.956 222.890 10.103 30.395 o
-10 3 5 413.035 397.571 13.575 11.546 o
-10 3 6 19.025 10.935 8.617 174.162 o
-10 3 7 1.391 1.897 8.871 192.461 o
-10 3 8 109.178 102.559 8.382 72.966 o
-10 3 9 23.305 19.307 10.270 123.036 o
-10 3 10 24.837 10.837 11.199 107.430 o
-10 3 11 4.686 1.966 11.639 111.075 o
-10 4 1 180.437 191.122 9.360 38.451 o
-10 4 2 30.840 25.684 4.245 342.003 o
-10 4 3 161.303 147.609 8.499 48.512 o
-10 4 4 305.482 296.674 11.786 18.500 o
-10 4 5 876.989 966.664 20.979 2.930 o
-10 4 6 979.051 1026.340 22.231 2.479 o
-10 4 7 842.333 919.561 21.850 3.131 o
-10 4 8 298.793 327.542 13.791 16.995 o
-10 4 9 18.092 16.255 10.367 125.416 o
-10 4 10 12.475 9.428 11.120 115.426 o
-10 4 11 33.220 24.989 12.813 79.874 o
-10 5 1 13.311 20.950 7.707 210.629 o
-10 5 2 155.720 179.268 9.027 44.901 o
-10 5 3 822.759 883.568 19.551 3.355 o
-10 5 4 793.703 869.474 19.600 3.522 o
-10 5 5 944.792 967.573 21.273 2.690 o
-10 5 6 271.995 266.110 11.805 21.551 o
-10 5 7 217.379 214.077 11.238 29.113 o
-10 5 8 48.223 32.873 5.604 206.976 o
-10 5 9 26.015 21.918 10.739 111.792 o
-10 5 10 138.422 152.215 11.033 45.870 o
-10 5 11 143.385 177.469 12.509 38.778 o
-10 6 1 76.656 48.991 5.438 146.663 o
-10 6 2 40.331 33.577 4.734 259.127 o
-10 6 3 36.950 32.628 5.047 258.639 o
-10 6 4 0.601 -0.479 8.069 235.123 o
-10 6 5 52.915 39.073 5.712 187.682 o
-10 6 6 91.458 86.900 7.287 94.007 o
-10 6 7 45.821 34.770 5.389 217.309 o
-10 6 8 9.457 8.597 9.683 151.799 o
-10 6 9 30.054 20.598 11.052 104.816 o
-10 6 10 25.522 21.547 12.402 87.593 o
-10 6 11 40.404 31.151 14.074 65.692 o
-10 7 1 286.081 281.915 11.649 20.185 o
-10 7 2 468.078 457.888 14.495 9.325 o
-10 7 3 714.463 734.355 18.446 4.400 o
-10 7 4 979.969 1031.030 21.596 2.481 o
-10 7 5 793.225 847.732 20.285 3.554 o
-10 7 6 365.844 373.755 14.172 13.198 o
-10 7 7 82.531 72.494 7.091 107.302 o
-10 7 8 1.636 2.230 9.898 154.723 o
-10 7 9 70.274 58.165 7.316 121.025 o
-10 7 10 118.854 123.900 10.485 55.639 o
-10 8 1 403.724 422.169 14.172 11.323 o
-10 8 2 951.320 1034.720 21.762 2.556 o
-10 8 3 651.900 705.356 17.996 4.989 o
-10 8 4 319.225 343.113 13.360 15.896 o
-10 8 5 193.718 187.523 10.074 35.423 o
-10 8 6 139.891 128.507 9.037 54.885 o
-10 8 7 81.448 75.565 7.120 106.639 o
-10 8 8 146.879 159.609 10.377 45.305 o
-10 8 9 287.564 319.757 15.522 16.766 o
-10 8 10 178.846 190.790 13.243 31.732 o
-10 9 1 17.012 21.097 8.783 165.107 o
-10 9 2 5.304 -4.069 8.793 191.955 o
-10 9 3 106.636 89.864 7.189 84.769 o
-10 9 4 178.597 191.367 10.387 36.858 o
-10 9 5 20.037 10.710 9.213 154.555 o
-10 9 6 2.544 2.934 9.155 179.009 o
-10 9 7 15.950 9.243 10.143 134.329 o
-10 9 8 15.883 16.206 11.287 108.980 o
-10 9 9 19.086 12.901 12.236 93.543 o
-10 10 1 694.037 760.401 19.336 4.407 o
-10 10 2 788.135 863.254 20.715 3.527 o
-10 10 3 750.436 844.035 20.715 3.765 o
-10 10 4 186.120 198.976 10.583 34.849 o
-10 10 5 133.180 142.347 9.252 54.069 o
-10 10 6 8.209 6.416 9.927 146.804 o
-10 10 7 92.118 73.882 7.736 93.838 o
-10 10 8 144.757 136.380 10.465 47.945 o
-10 10 9 62.290 43.064 7.042 141.409 o
-10 11 1 273.347 295.413 12.940 19.735 o
-10 11 2 156.270 152.968 9.585 46.186 o
-10 11 3 24.940 21.684 9.634 134.615 o
-10 11 4 139.512 126.238 9.047 55.275 o
-10 11 5 127.846 119.714 8.832 60.618 o
-10 11 6 106.780 87.967 8.069 79.317 o
-10 11 7 303.940 326.681 15.150 16.080 o
-10 11 8 202.877 230.166 13.429 26.994 o
-10 12 1 77.568 59.309 6.876 119.661 o
-10 12 2 91.808 76.259 7.296 97.191 o
-10 12 3 15.861 9.164 9.536 150.070 o
-10 12 4 29.645 11.512 9.869 129.712 o
-10 12 5 16.247 7.912 10.446 127.623 o
-10 12 6 4.449 1.839 10.993 124.339 o
-10 12 7 17.010 16.510 12.363 91.891 o
-10 12 8 0.924 0.978 12.470 98.448 o
-10 13 1 307.729 355.553 14.788 15.479 o
-10 13 2 213.875 228.455 11.913 27.905 o
-10 13 3 26.304 24.823 10.397 116.922 o
-10 13 4 44.989 29.948 11.238 92.966 o
-10 13 5 118.365 113.152 9.233 63.015 o
-10 13 6 168.866 181.400 11.756 36.399 o
-10 13 7 147.676 139.207 11.336 44.433 o
-10 14 1 29.665 27.953 10.788 107.335 o
-10 14 2 31.752 23.337 10.925 105.267 o
-10 14 3 104.601 112.271 9.350 67.370 o
-10 14 4 141.586 142.474 10.172 48.896 o
-10 14 5 182.599 181.684 11.981 34.066 o
-10 14 6 120.998 119.284 10.436 55.890 o
-10 15 1 6.390 -1.927 10.915 125.513 o
-10 15 2 4.089 1.135 10.778 129.654 o
-10 15 3 31.960 16.793 11.531 97.615 o
-10 15 4 4.483 6.113 11.570 111.527 o
-10 15 5 0.010 -0.646 12.333 101.122 o
-10 16 1 35.538 33.547 12.079 85.844 o
-10 16 2 28.587 21.762 12.304 87.710 o
-10 16 3 55.123 42.350 6.934 152.769 o
-10 16 4 132.518 127.920 10.641 51.099 o
-10 17 1 22.774 20.402 12.431 88.352 o
-10 17 2 43.593 40.110 13.478 68.749 o
-10 17 3 95.902 95.292 9.252 74.681 o
-9 -12 3 67.017 62.322 8.128 111.057 o
-9 -12 4 40.932 30.633 13.223 72.854 o
-9 -12 5 20.006 16.901 12.676 86.771 o
-9 -12 6 4.512 3.893 12.304 99.343 o
-9 -11 1 37.144 32.687 13.497 71.100 o
-9 -11 2 20.548 17.801 12.441 89.421 o
-9 -11 3 1.093 2.142 11.668 112.047 o
-9 -11 4 4.940 2.250 11.521 113.119 o
-9 -11 5 19.772 15.561 11.678 100.936 o
-9 -11 6 62.608 53.412 7.414 129.137 o
-9 -11 7 58.245 45.235 7.375 138.638 o
-9 -11 8 57.736 58.977 8.030 121.381 o
-9 -10 1 40.378 26.222 12.353 82.361 o
-9 -10 2 78.752 72.689 8.597 94.277 o
-9 -10 3 61.259 52.727 7.013 137.602 o
-9 -10 4 1.636 -0.646 11.228 121.189 o
-9 -10 5 8.125 5.907 10.944 122.258 o
-9 -10 6 1.995 -1.467 11.287 119.764 o
-9 -10 7 1.647 1.800 11.287 119.491 o
-9 -10 8 10.435 8.724 11.913 102.481 o
-9 -10 9 31.243 20.803 12.744 81.853 o
-9 -9 1 111.159 106.325 9.292 66.394 o
-9 -9 2 97.620 71.017 7.912 89.871 o
-9 -9 3 77.074 61.481 6.993 117.632 o
-9 -9 4 41.441 26.183 10.896 100.093 o
-9 -9 5 38.477 22.887 10.729 104.915 o
-9 -9 6 131.568 128.527 9.595 55.142 o
-9 -9 7 124.396 144.019 10.495 51.648 o
-9 -9 8 170.676 197.000 12.353 33.938 o
-9 -9 9 90.010 100.760 9.409 74.940 o
-9 -9 10 16.115 11.267 12.558 90.444 o
-9 -8 1 1.210 -0.088 10.260 145.256 o
-9 -8 2 0.115 0.743 9.761 161.018 o
-9 -8 3 59.477 52.414 6.269 153.573 o
-9 -8 4 74.334 66.078 6.866 119.647 o
-9 -8 5 158.608 198.008 11.238 37.755 o
-9 -8 6 132.239 166.309 10.622 46.937 o
-9 -8 7 92.202 105.699 8.734 77.535 o
-9 -8 8 34.453 27.963 11.590 93.379 o
-9 -8 9 0.150 2.367 11.169 122.613 o
-9 -8 10 2.671 0.557 11.942 106.697 o
-9 -7 1 188.874 178.603 10.651 35.798 o
-9 -7 2 24.842 22.163 9.839 129.957 o
-9 -7 3 11.223 6.289 9.321 162.238 o
-9 -7 4 8.866 -0.333 9.575 159.448 o
-9 -7 5 10.327 5.555 9.321 163.504 o
-9 -7 6 101.394 95.850 8.245 78.846 o
-9 -7 7 113.814 111.450 8.988 66.100 o
-9 -7 8 142.434 151.638 10.094 47.917 o
-9 -7 9 74.327 58.830 7.042 120.717 o
-9 -7 10 13.304 -0.166 12.011 101.487 o
-9 -7 11 0.243 -0.939 12.255 102.334 o
-9 -6 1 144.919 148.205 9.438 49.722 o
-9 -6 2 53.702 41.949 6.015 176.003 o
-9 -6 3 111.567 105.053 7.688 75.344 o
-9 -6 4 405.118 428.135 14.827 11.052 o
-9 -6 5 458.512 528.249 16.598 8.504 o
-9 -6 6 439.685 507.055 16.676 9.028 o
-9 -6 7 291.228 319.326 13.771 17.583 o
-9 -6 8 97.406 114.306 8.773 73.132 o
-9 -6 9 104.837 90.686 8.167 78.953 o
-9 -6 10 42.718 35.112 12.421 79.411 o
-9 -6 11 17.402 14.681 12.402 91.542 o
-9 -5 1 163.711 145.652 9.223 46.311 o
-9 -5 2 207.959 214.821 10.622 30.928 o
-9 -5 3 319.443 326.583 12.852 16.490 o
-9 -5 4 223.660 243.918 11.355 26.820 o
-9 -5 5 61.315 60.757 6.641 139.269 o
-9 -5 6 65.890 55.896 6.152 144.855 o
-9 -5 7 11.552 8.812 9.008 170.893 o
-9 -5 8 1.595 2.465 9.370 172.288 o
-9 -5 9 108.578 99.077 8.548 72.986 o
-9 -5 10 62.102 74.998 7.903 112.883 o
-9 -5 11 44.342 38.399 6.592 179.977 o
-9 -5 12 23.329 21.410 13.106 80.098 o
-9 -4 1 11.671 5.017 8.245 202.920 o
-9 -4 2 13.131 10.807 8.049 204.554 o
-9 -4 3 37.969 24.843 8.558 146.376 o
-9 -4 4 606.335 619.942 17.077 5.850 o
-9 -4 5 345.392 356.610 13.360 14.527 o
-9 -4 6 297.613 336.208 13.145 17.171 o
-9 -4 7 277.329 283.510 12.588 20.087 o
-9 -4 8 63.656 46.155 6.220 153.060 o
-9 -4 9 0.808 -0.469 9.849 157.887 o
-9 -4 10 3.731 3.404 10.573 134.136 o
-9 -4 11 42.129 32.785 12.617 77.992 o
-9 -4 12 39.580 32.119 13.546 70.139 o
-9 -3 1 508.204 549.708 15.874 7.621 o
-9 -3 2 704.885 728.741 18.006 4.505 o
-9 -3 3 1013.380 1096.570 21.801 2.298 o
-9 -3 4 959.717 1045.420 21.048 2.528 o
-9 -3 5 460.338 490.887 15.052 9.060 o
-9 -3 6 387.296 439.686 14.534 11.444 o
-9 -3 7 278.187 313.888 12.891 18.938 o
-9 -3 8 330.838 388.534 14.730 13.967 o
-9 -3 9 111.463 119.705 8.949 65.658 o
-9 -3 10 200.471 225.922 12.666 28.420 o
-9 -3 11 188.324 221.325 13.057 29.345 o
-9 -3 12 74.720 65.432 8.235 103.026 o
-9 -2 1 273.355 271.822 11.033 21.791 o
-9 -2 2 26.676 18.935 7.785 186.872 o
-9 -2 3 100.537 90.519 6.993 89.494 o
-9 -2 4 7.896 -0.020 7.384 261.712 o
-9 -2 5 111.191 104.858 7.257 78.027 o
-9 -2 6 61.848 52.629 5.712 160.688 o
-9 -2 7 278.351 286.982 12.216 20.157 o
-9 -2 8 369.859 422.404 15.033 12.049 o
-9 -2 9 44.019 42.350 6.005 193.715 o
-9 -2 10 35.416 26.936 11.081 100.191 o
-9 -2 11 14.730 5.927 11.600 106.485 o
-9 -2 12 5.086 3.208 12.089 102.741 o
-9 -1 1 287.699 276.761 10.876 20.721 o
-9 -1 2 605.875 609.096 15.610 6.022 o
-9 -1 3 1027.540 1068.030 20.706 2.315 o
-9 -1 4 207.265 203.651 9.653 33.026 o
-9 -1 5 223.211 233.404 10.495 28.324 o
-9 -1 6 236.492 252.535 11.013 25.565 o
-9 -1 7 9.560 9.282 8.304 200.322 o
-9 -1 8 62.907 52.218 6.260 149.251 o
-9 -1 9 173.933 183.024 10.817 37.399 o
-9 -1 10 128.623 132.762 9.702 54.959 o
-9 -1 11 50.078 42.663 7.022 157.324 o
-9 -1 12 12.546 7.150 12.294 96.072 o
-9 0 1 1054.140 1059.570 20.647 2.259 o
-9 0 2 1122.980 1109.260 20.686 2.041 o
-9 0 3 980.435 1045.220 20.021 2.485 o
-9 0 4 561.687 609.702 15.571 6.525 o
-9 0 5 1142.820 1308.050 22.926 1.785 o
-9 0 6 1740.750 1954.720 28.990 0.826 o
-9 0 7 304.155 325.234 12.754 17.314 o
-9 0 8 581.848 645.773 18.270 5.874 o
-9 0 9 386.199 421.406 15.581 11.454 o
-9 0 10 224.832 244.622 12.734 25.222 o
-9 0 11 119.912 117.504 10.094 57.917 o
-9 0 12 22.666 12.509 12.402 90.109 o
-9 1 1 1.438 3.599 6.876 314.026 o
-9 1 2 22.960 18.534 7.189 217.420 o
-9 1 3 112.216 122.932 7.502 72.046 o
-9 1 4 383.573 422.766 13.018 12.174 o
-9 1 5 698.908 753.604 17.713 4.474 o
-9 1 6 618.241 637.185 16.598 5.680 o
-9 1 7 30.395 19.727 8.402 161.704 o
-9 1 8 63.637 41.362 5.585 169.369 o
-9 1 9 17.242 11.688 9.536 147.721 o
-9 1 10 28.754 20.079 10.455 115.797 o
-9 1 11 11.316 6.005 11.336 112.771 o
-9 1 12 2.152 -0.606 12.118 103.948 o
-9 2 1 983.025 997.101 19.189 2.562 o
-9 2 2 497.681 531.340 14.045 8.156 o
-9 2 3 232.913 279.959 10.690 24.951 o
-9 2 4 287.280 295.139 11.238 19.934 o
-9 2 5 70.753 86.979 6.876 113.399 o
-9 2 6 109.311 110.188 7.560 75.920 o
-9 2 7 365.458 385.580 13.497 13.222 o
-9 2 8 323.471 346.379 13.869 15.421 o
-9 2 9 197.882 210.517 11.394 31.313 o
-9 2 10 21.299 18.299 10.680 116.559 o
-9 2 11 18.780 14.769 11.404 105.948 o
-9 2 12 0.218 -0.880 12.500 98.381 o
-9 3 1 1077.070 1052.270 19.806 2.222 o
-9 3 2 355.032 403.097 12.167 13.683 o
-9 3 3 1254.950 1302.420 22.045 1.614 o
-9 3 4 2139.110 2365.270 30.075 0.568 o
-9 3 5 1271.780 1326.050 23.121 1.564 o
-9 3 6 901.737 911.726 19.747 2.969 o
-9 3 7 818.933 873.220 20.314 3.373 o
-9 3 8 583.090 638.369 17.996 5.922 o
-9 3 9 129.904 148.606 9.556 53.044 o
-9 3 10 108.082 109.552 9.204 67.398 o
-9 3 11 27.286 27.493 12.030 90.587 o
-9 3 12 27.681 16.431 13.008 80.642 o
-9 4 1 116.403 105.210 7.062 76.485 o
-9 4 2 597.316 623.698 15.082 6.074 o
-9 4 3 1567.190 1715.420 25.488 1.029 o
-9 4 4 2035.280 2073.890 28.285 0.660 o
-9 4 5 71.615 64.630 6.220 131.795 o
-9 4 6 11.660 5.115 7.844 221.726 o
-9 4 7 0.579 1.438 8.137 229.939 o
-9 4 8 24.568 19.004 9.233 145.739 o
-9 4 9 38.584 26.916 10.113 113.642 o
-9 4 10 43.777 27.092 11.492 90.922 o
-9 4 11 16.425 7.414 11.746 102.992 o
-9 5 1 109.385 131.793 7.580 70.966 o
-9 5 2 31.353 21.918 7.443 189.010 o
-9 5 3 268.703 291.246 10.925 21.501 o
-9 5 4 173.142 159.316 8.822 43.823 o
-9 5 5 1457.650 1591.210 25.410 1.177 o
-9 5 6 422.694 438.845 14.250 10.601 o
-9 5 7 303.794 322.534 12.852 17.352 o
-9 5 8 67.693 72.464 7.081 120.027 o
-9 5 9 0.733 -0.411 9.996 153.366 o
-9 5 10 35.394 29.342 11.414 95.020 o
-9 5 11 6.043 3.570 12.099 102.150 o
-9 6 1 1024.620 1075.240 20.490 2.316 o
-9 6 2 2320.680 2517.600 31.220 0.492 o
-9 6 3 1560.930 1605.100 24.921 1.081 o
-9 6 4 776.533 812.786 18.006 3.806 o
-9 6 5 699.288 700.779 17.449 4.672 o
-9 6 6 439.988 439.696 14.475 10.134 o
-9 6 7 307.106 333.723 13.174 16.755 o
-9 6 8 155.957 173.390 10.064 42.961 o
-9 6 9 94.597 94.079 8.372 81.710 o
-9 6 10 105.209 97.923 9.272 70.280 o
-9 6 11 63.127 69.472 8.079 111.940 o
-9 7 1 806.609 879.626 18.583 3.467 o
-9 7 2 1310.270 1386.150 23.248 1.468 o
-9 7 3 161.390 171.434 8.763 45.148 o
-9 7 4 0.217 4.685 7.511 266.272 o
-9 7 5 4.951 1.878 7.639 250.156 o
-9 7 6 65.489 49.226 5.849 155.243 o
-9 7 7 66.480 55.299 6.172 144.156 o
-9 7 8 86.954 78.274 7.316 99.645 o
-9 7 9 64.651 38.017 6.524 151.398 o
-9 7 10 22.674 11.502 11.805 98.640 o
-9 7 11 9.524 5.370 12.578 93.291 o
-9 8 1 26.593 22.163 7.746 185.881 o
-9 8 2 2.863 -0.421 7.414 272.393 o
-9 8 3 988.696 1044.310 21.038 2.446 o
-9 8 4 467.817 472.060 14.514 9.184 o
-9 8 5 456.460 474.006 15.160 9.286 o
-9 8 6 81.772 77.374 7.091 105.996 o
-9 8 7 9.773 7.952 9.194 167.020 o
-9 8 8 47.132 39.699 6.152 186.126 o
-9 8 9 45.645 38.379 6.465 181.290 o
-9 8 10 30.782 21.967 12.343 86.441 o
-9 9 1 855.245 943.415 20.265 3.074 o
-9 9 2 586.807 665.637 16.881 5.831 o
-9 9 3 1014.000 1085.430 21.772 2.311 o
-9 9 4 367.839 367.809 13.194 13.542 o
-9 9 5 414.857 429.651 14.524 10.853 o
-9 9 6 257.953 310.974 12.813 20.290 o
-9 9 7 107.218 101.659 8.343 74.238 o
-9 9 8 215.272 230.988 12.421 27.040 o
-9 9 9 116.507 130.209 9.859 58.091 o
-9 9 10 21.846 8.382 12.519 89.546 o
-9 10 1 294.427 315.365 12.323 18.309 o
-9 10 2 2.411 5.467 7.893 236.526 o
-9 10 3 78.286 47.338 5.829 139.750 o
-9 10 4 2.396 3.355 8.313 215.830 o
-9 10 5 35.409 28.158 9.399 128.697 o
-9 10 6 47.037 42.976 5.829 192.173 o
-9 10 7 51.302 35.259 5.526 199.935 o
-9 10 8 18.919 9.859 11.003 114.163 o
-9 10 9 16.251 11.844 11.922 99.385 o
-9 11 1 313.847 345.235 13.126 16.194 o
-9 11 2 504.797 516.737 15.835 7.934 o
-9 11 3 562.995 607.804 17.576 6.342 o
-9 11 4 27.414 16.950 9.340 141.415 o
-9 11 5 36.298 30.339 4.929 270.097 o
-9 11 6 21.613 16.803 10.230 125.798 o
-9 11 7 39.091 30.339 11.306 94.606 o
-9 11 8 56.230 45.304 6.396 160.647 o
-9 11 9 34.684 17.556 12.412 85.056 o
-9 12 1 319.197 357.823 13.908 15.344 o
-9 12 2 418.217 440.361 15.297 10.468 o
-9 12 3 162.341 160.529 9.937 43.278 o
-9 12 4 270.603 285.564 12.764 20.327 o
-9 12 5 95.539 80.034 7.531 91.573 o
-9 12 6 170.372 171.190 11.150 38.196 o
-9 12 7 173.957 175.786 11.551 36.482 o
-9 12 8 60.108 48.091 6.993 141.918 o
-9 13 1 1.205 1.712 8.988 187.881 o
-9 13 2 6.204 5.663 9.233 170.671 o
-9 13 3 3.661 4.636 9.164 176.449 o
-9 13 4 46.016 32.902 5.272 223.113 o
-9 13 5 12.041 7.658 10.543 128.206 o
-9 13 6 31.347 19.277 11.649 95.695 o
-9 13 7 12.959 7.756 11.922 101.509 o
-9 13 8 23.656 14.250 12.891 83.468 o
-9 14 1 340.353 348.472 14.436 14.470 o
-9 14 2 151.548 131.246 9.340 50.471 o
-9 14 3 12.655 7.991 10.035 139.868 o
-9 14 4 21.695 15.972 10.690 116.818 o
-9 14 5 70.883 63.055 7.531 115.439 o
-9 14 6 46.287 36.061 6.269 187.725 o
-9 14 7 55.045 40.276 6.719 158.911 o
-9 15 1 136.969 137.994 9.790 51.784 o
-9 15 2 79.621 70.811 7.717 103.425 o
-9 15 3 67.255 62.097 7.384 121.027 o
-9 15 4 113.668 114.090 9.644 62.423 o
-9 15 5 78.435 74.323 8.274 97.214 o
-9 15 6 43.626 32.305 13.351 70.801 o
-9 16 1 0.011 4.352 10.661 133.989 o
-9 16 2 6.930 6.700 10.944 122.700 o
-9 16 3 1.215 1.252 11.238 120.877 o
-9 16 4 10.243 7.003 11.864 103.709 o
-9 16 5 1.138 -1.027 12.323 100.891 o
-9 17 1 30.107 21.107 12.020 90.853 o
-9 17 2 10.002 7.443 11.766 105.359 o
-9 17 3 25.197 22.163 12.431 87.237 o
-9 17 4 24.682 15.492 12.871 83.204 o
-9 18 1 12.890 7.169 12.441 93.823 o
-9 18 2 29.782 22.446 13.262 76.545 o
-8 -13 2 70.656 64.894 8.333 104.891 o
-8 -13 3 86.892 74.332 8.509 89.919 o
-8 -13 4 70.836 58.801 7.942 111.872 o
-8 -13 5 67.996 44.365 6.964 135.596 o
-8 -13 6 36.186 22.799 13.116 76.224 o
-8 -13 7 5.775 4.577 12.588 94.493 o
-8 -12 1 0.671 -0.773 12.236 102.509 o
-8 -12 2 0.399 2.954 11.649 112.546 o
-8 -12 3 8.333 5.399 11.600 109.432 o
-8 -12 4 12.720 4.440 11.678 106.345 o
-8 -12 5 0.695 0.098 11.492 116.129 o
-8 -12 6 5.214 2.680 11.590 111.601 o
-8 -12 7 0.004 0.792 11.688 112.433 o
-8 -12 8 1.172 1.467 12.020 105.729 o
-8 -11 1 84.619 73.579 8.186 94.451 o
-8 -11 2 172.575 170.534 11.169 37.862 o
-8 -11 3 175.688 181.655 11.463 35.982 o
-8 -11 4 208.673 197.832 11.737 30.311 o
-8 -11 5 32.563 19.473 11.218 101.314 o
-8 -11 6 27.749 17.390 11.267 103.335 o
-8 -11 7 53.073 38.927 6.260 173.640 o
-8 -11 8 54.781 41.968 6.670 159.171 o
-8 -11 9 99.074 103.078 9.585 69.755 o
-8 -10 1 90.441 84.749 8.167 87.948 o
-8 -10 2 115.481 108.075 8.920 66.457 o
-8 -10 3 124.724 111.195 8.822 63.114 o
-8 -10 4 207.870 212.454 11.746 29.577 o
-8 -10 5 49.464 31.689 5.683 203.127 o
-8 -10 6 62.766 62.292 7.296 126.447 o
-8 -10 7 55.312 57.461 6.778 146.044 o
-8 -10 8 85.519 95.478 8.832 82.391 o
-8 -10 9 113.536 116.350 10.289 59.035 o
-8 -10 10 33.912 30.946 12.832 78.575 o
-8 -9 1 0.170 -2.386 9.605 166.591 o
-8 -9 2 9.505 8.587 9.820 147.866 o
-8 -9 3 15.165 13.067 9.722 143.962 o
-8 -9 4 19.098 9.125 9.526 147.478 o
-8 -9 5 0.425 1.271 9.184 181.181 o
-8 -9 6 10.069 2.465 9.771 151.352 o
-8 -9 7 0.971 3.247 9.644 163.008 o
-8 -9 8 1.837 -3.228 10.768 131.560 o
-8 -9 9 0.432 1.330 10.896 128.952 o
-8 -9 10 0.261 -0.078 11.698 112.305 o
-8 -9 11 3.598 -3.012 12.705 94.186 o
-8 -8 1 297.737 300.332 12.989 18.174 o
-8 -8 2 560.032 588.390 18.094 6.438 o
-8 -8 3 245.620 243.977 11.981 24.249 o
-8 -8 4 132.820 113.689 8.509 61.327 o
-8 -8 5 196.352 226.675 11.218 30.792 o
-8 -8 6 252.640 312.920 13.507 20.075 o
-8 -8 7 223.532 260.320 12.441 24.968 o
-8 -8 8 267.508 262.178 13.077 21.056 o
-8 -8 9 170.080 192.443 11.248 36.429 o
-8 -8 10 83.536 66.215 8.343 95.868 o
-8 -8 11 19.596 14.045 12.402 90.898 o
-8 -7 1 281.314 306.338 12.950 18.940 o
-8 -7 2 508.639 588.752 17.214 7.177 o
-8 -7 3 81.265 78.352 6.807 108.970 o
-8 -7 4 152.380 172.510 9.673 44.722 o
-8 -7 5 183.835 203.690 10.436 35.084 o
-8 -7 6 240.142 250.588 11.825 24.574 o
-8 -7 7 387.051 391.194 14.593 12.126 o
-8 -7 8 190.515 195.993 11.111 33.581 o
-8 -7 9 152.918 163.883 10.720 42.804 o
-8 -7 10 101.502 110.697 9.213 69.594 o
-8 -7 11 21.320 21.517 12.030 93.968 o
-8 -7 12 3.660 2.523 12.695 93.919 o
-8 -6 1 0.093 0.440 8.265 224.668 o
-8 -6 2 64.973 48.326 5.859 156.462 o
-8 -6 3 0.724 0.499 7.600 264.023 o
-8 -6 4 5.116 1.633 7.736 244.095 o
-8 -6 5 18.924 18.319 8.333 179.278 o
-8 -6 6 3.530 3.423 8.294 214.903 o
-8 -6 7 2.270 -1.017 8.803 195.511 o
-8 -6 8 1.123 2.162 9.086 183.743 o
-8 -6 9 12.846 8.685 9.957 141.468 o
-8 -6 10 34.188 24.451 10.935 103.589 o
-8 -6 11 0.497 1.760 11.111 123.881 o
-8 -6 12 0.845 -1.359 12.304 101.313 o
-8 -5 1 301.876 340.296 12.578 17.137 o
-8 -5 2 340.036 327.571 12.030 15.867 o
-8 -5 3 197.402 192.413 9.331 35.698 o
-8 -5 4 1122.600 1229.240 22.916 1.895 o
-8 -5 5 491.336 547.478 15.590 7.935 o
-8 -5 6 514.924 543.791 15.913 7.560 o
-8 -5 7 450.743 462.485 15.052 9.541 o
-8 -5 8 148.353 142.307 9.272 50.109 o
-8 -5 9 109.327 116.389 9.047 66.528 o
-8 -5 10 0.251 -3.854 10.143 149.342 o
-8 -5 11 49.215 44.091 6.328 174.050 o
-8 -5 12 46.841 35.904 6.455 181.632 o
-8 -4 1 557.186 554.266 15.052 6.981 o
-8 -4 2 191.641 181.058 8.900 38.216 o
-8 -4 3 617.163 605.438 15.727 5.913 o
-8 -4 4 480.129 493.440 14.221 8.783 o
-8 -4 5 677.055 688.563 16.862 4.918 o
-8 -4 6 640.169 621.869 16.705 5.536 o
-8 -4 7 425.187 470.779 15.248 9.967 o
-8 -4 8 302.523 347.915 13.438 16.510 o
-8 -4 9 131.554 165.996 9.869 49.452 o
-8 -4 10 25.443 26.681 10.416 116.519 o
-8 -4 11 74.651 69.335 7.560 109.460 o
-8 -4 12 79.501 75.799 8.617 92.729 o
-8 -3 1 19.324 15.219 7.101 232.914 o
-8 -3 2 127.364 110.481 7.052 70.352 o
-8 -3 3 38.383 30.887 4.470 282.720 o
-8 -3 4 203.731 200.267 9.565 33.863 o
-8 -3 5 0.170 -1.242 6.974 315.733 o
-8 -3 6 4.913 -0.391 7.580 256.091 o
-8 -3 7 6.022 -0.460 8.079 224.622 o
-8 -3 8 171.364 154.973 9.595 42.872 o
-8 -3 9 5.492 5.673 8.793 188.048 o
-8 -3 10 7.535 7.120 9.790 150.958 o
-8 -3 11 15.271 6.837 10.974 117.490 o
-8 -3 12 0.947 -0.342 11.844 109.263 o
-8 -2 1 663.637 649.558 15.678 5.258 o
-8 -2 2 768.602 753.154 16.519 4.074 o
-8 -2 3 1280.100 1375.810 22.182 1.523 o
-8 -2 4 865.392 929.498 18.495 3.104 o
-8 -2 5 481.696 527.623 14.162 8.451 o
-8 -2 6 310.345 329.752 12.050 17.226 o
-8 -2 7 162.511 176.637 9.174 43.438 o
-8 -2 8 5.393 12.558 8.245 206.874 o
-8 -2 9 197.576 221.354 11.297 30.851 o
-8 -2 10 255.239 284.967 13.204 21.018 o
-8 -2 11 180.423 203.847 12.050 32.812 o
-8 -2 12 64.985 59.681 7.609 120.956 o
-8 -1 1 283.919 243.155 9.663 23.000 o
-8 -1 2 641.573 592.469 14.329 5.821 o
-8 -1 3 1261.780 1281.470 20.979 1.627 o
-8 -1 4 720.424 745.603 16.441 4.410 o
-8 -1 5 894.347 904.283 18.407 3.041 o
-8 -1 6 593.898 605.164 15.747 6.164 o
-8 -1 7 477.910 531.076 15.180 8.350 o
-8 -1 8 35.558 29.860 4.499 294.893 o
-8 -1 9 178.594 200.375 10.690 35.641 o
-8 -1 10 120.652 116.506 8.891 63.283 o
-8 -1 11 89.571 83.331 8.402 86.883 o
-8 -1 12 27.398 18.290 12.578 85.373 o
-8 0 1 70.699 62.302 5.643 142.645 o
-8 0 2 49.713 44.003 5.017 208.180 o
-8 0 3 44.243 36.306 5.047 231.082 o
-8 0 4 2.413 1.809 6.269 374.668 o
-8 0 5 61.942 48.160 5.301 172.326 o
-8 0 6 51.340 41.362 5.086 205.540 o
-8 0 7 38.552 20.040 7.648 172.832 o
-8 0 8 76.674 78.401 6.954 111.135 o
-8 0 9 96.439 86.216 7.746 87.511 o
-8 0 10 0.438 -1.555 9.556 168.041 o
-8 0 11 19.619 13.086 10.856 115.663 o
-8 0 12 2.766 7.345 11.570 112.020 o
-8 1 1 1403.220 1352.020 21.224 1.384 o
-8 1 2 1827.730 2000.790 25.302 0.775 o
-8 1 3 1155.800 1289.400 20.363 1.802 o
-8 1 4 775.132 859.156 17.126 3.718 o
-8 1 5 472.728 509.578 13.918 8.813 o
-8 1 6 79.278 71.926 6.289 119.289 o
-8 1 7 173.340 171.708 8.998 42.174 o
-8 1 8 644.694 680.543 18.026 5.149 o
-8 1 9 684.416 776.226 19.972 4.387 o
-8 1 10 168.127 169.762 10.954 39.089 o
-8 1 11 152.007 167.727 11.199 41.411 o
-8 1 12 23.562 19.043 12.314 89.813 o
-8 2 1 1571.520 1596.530 22.603 1.084 o
-8 2 2 922.447 903.266 17.175 2.961 o
-8 2 3 720.243 728.781 15.571 4.505 o
-8 2 4 92.320 86.059 6.250 102.486 o
-8 2 5 545.167 560.760 14.289 7.174 o
-8 2 6 45.175 21.723 7.423 168.619 o
-8 2 7 244.948 261.709 10.847 24.564 o
-8 2 8 490.886 541.541 16.294 7.898 o
-8 2 9 156.996 158.132 9.878 44.726 o
-8 2 10 110.579 105.405 8.871 69.057 o
-8 2 11 7.346 3.355 10.925 123.821 o
-8 2 12 4.496 3.589 11.835 107.256 o
-8 3 1 138.579 136.889 7.199 60.434 o
-8 3 2 155.572 154.641 7.648 51.293 o
-8 3 3 27.046 25.244 4.538 343.943 o
-8 3 4 6.433 3.081 6.211 358.874 o
-8 3 5 388.623 360.551 11.619 13.395 o
-8 3 6 165.073 152.567 8.274 47.599 o
-8 3 7 36.292 21.830 4.391 315.285 o
-8 3 8 68.592 61.608 6.670 130.236 o
-8 3 9 90.059 86.499 7.903 89.846 o
-8 3 10 6.128 -0.861 10.133 145.194 o
-8 3 11 14.350 7.022 10.974 117.939 o
-8 3 12 0.249 1.457 11.874 108.713 o
-8 4 1 1931.040 1918.370 25.205 0.745 o
-8 4 2 626.691 689.169 14.935 5.456 o
-8 4 3 412.306 439.050 12.128 11.305 o
-8 4 4 59.476 78.088 5.839 143.934 o
-8 4 5 339.956 371.251 12.030 14.928 o
-8 4 6 1573.870 1624.020 25.390 1.061 o
-8 4 7 1586.930 1739.040 27.689 0.998 o
-8 4 8 766.665 848.720 20.657 3.671 o
-8 4 9 225.094 242.206 12.089 25.987 o
-8 4 10 102.266 108.027 9.096 70.501 o
-8 4 11 20.774 22.486 11.443 102.630 o
-8 4 12 15.658 12.372 12.500 91.201 o
-8 5 1 235.745 267.831 9.605 26.185 o
-8 5 2 157.990 176.041 7.952 47.276 o
-8 5 3 314.888 336.501 10.798 17.375 o
-8 5 4 2.566 4.704 6.387 354.405 o
-8 5 5 99.726 89.600 6.758 92.014 o
-8 5 6 529.472 565.367 15.395 7.251 o
-8 5 7 445.664 442.063 14.720 9.932 o
-8 5 8 98.617 93.424 7.844 83.617 o
-8 5 9 36.167 22.574 9.888 120.684 o
-8 5 10 19.990 16.823 10.612 119.077 o
-8 5 11 8.093 5.976 11.267 115.666 o
-8 5 12 19.477 10.260 13.008 83.892 o
-8 6 1 366.814 336.520 10.935 14.898 o
-8 6 2 146.682 120.956 6.934 61.285 o
-8 6 3 78.760 66.537 5.663 130.161 o
-8 6 4 486.934 453.017 13.292 9.178 o
-8 6 5 118.156 107.704 7.296 73.842 o
-8 6 6 99.623 79.360 6.749 95.520 o
-8 6 7 132.895 113.699 8.186 62.646 o
-8 6 8 68.550 48.091 6.074 147.800 o
-8 6 9 18.504 12.460 9.751 140.718 o
-8 6 10 2.830 2.435 10.465 137.756 o
-8 6 11 0.575 -0.988 11.698 112.170 o
-8 7 1 390.960 439.334 12.500 11.829 o
-8 7 2 117.342 153.448 7.766 62.847 o
-8 7 3 11.319 15.610 6.827 268.134 o
-8 7 4 1460.890 1534.220 24.031 1.208 o
-8 7 5 1474.410 1537.410 25.077 1.188 o
-8 7 6 1399.330 1419.020 25.136 1.328 o
-8 7 7 578.809 645.988 18.094 5.918 o
-8 7 8 150.107 140.928 9.438 49.352 o
-8 7 9 65.632 75.046 7.208 119.040 o
-8 7 10 45.072 37.812 6.348 186.104 o
-8 7 11 32.210 23.229 12.549 83.362 o
-8 8 1 16.159 18.202 6.993 242.388 o
-8 8 2 0.469 -0.068 6.573 354.079 o
-8 8 3 155.257 156.401 8.186 49.734 o
-8 8 4 810.345 804.883 18.211 3.643 o
-8 8 5 924.289 923.101 20.119 2.858 o
-8 8 6 300.864 302.504 12.343 18.298 o
-8 8 7 57.749 52.316 6.054 160.370 o
-8 8 8 28.264 20.226 9.820 128.549 o
-8 8 9 13.802 8.793 10.563 126.311 o
-8 8 10 40.432 34.007 12.236 82.300 o
-8 8 11 3.097 3.893 12.382 98.604 o
-8 9 1 5.951 1.125 6.749 313.752 o
-8 9 2 4.483 2.426 6.895 304.110 o
-8 9 3 418.566 408.046 13.341 11.302 o
-8 9 4 106.801 95.908 7.463 81.261 o
-8 9 5 230.745 202.253 10.338 29.374 o
-8 9 6 284.503 282.600 12.148 19.952 o
-8 9 7 60.000 45.499 5.829 166.810 o
-8 9 8 24.346 15.395 10.103 127.098 o
-8 9 9 11.444 4.176 11.101 117.711 o
-8 9 10 6.132 1.555 11.835 107.002 o
-8 10 1 1.139 -0.010 7.287 286.507 o
-8 10 2 1345.930 1429.170 24.500 1.388 o
-8 10 3 1574.060 1632.650 26.388 1.053 o
-8 10 4 1407.710 1389.350 25.116 1.335 o
-8 10 5 710.939 760.665 19.082 4.307 o
-8 10 6 202.310 212.209 10.817 31.501 o
-8 10 7 59.922 62.351 6.866 136.203 o
-8 10 8 52.100 54.243 6.543 157.048 o
-8 10 9 57.291 44.639 6.680 153.676 o
-8 10 10 83.563 60.239 8.010 101.224 o
-8 11 1 14.820 29.391 4.744 386.581 o
-8 11 2 846.438 880.526 19.962 3.247 o
-8 11 3 264.693 255.772 11.580 22.623 o
-8 11 4 319.019 314.680 12.920 16.761 o
-8 11 5 74.988 66.293 6.778 120.058 o
-8 11 6 1.382 1.311 9.155 181.231 o
-8 11 7 40.023 21.175 10.612 106.360 o
-8 11 8 43.718 30.731 11.551 89.482 o
-8 11 9 15.296 6.837 12.196 96.582 o
-8 12 1 228.718 203.593 10.289 29.584 o
-8 12 2 121.140 98.569 7.912 71.327 o
-8 12 3 134.446 136.821 8.783 56.160 o
-8 12 4 119.446 100.378 8.030 71.042 o
-8 12 5 79.004 60.640 6.641 120.666 o
-8 12 6 20.316 14.152 9.947 133.926 o
-8 12 7 7.683 -2.758 11.120 120.367 o
-8 12 8 6.922 5.203 11.531 111.363 o
-8 12 9 78.572 63.388 8.538 97.833 o
-8 13 1 811.176 903.569 21.517 3.304 o
-8 13 2 1064.350 1197.070 24.598 2.024 o
-8 13 3 398.528 427.519 15.170 11.150 o
-8 13 4 228.696 244.338 12.206 25.450 o
-8 13 5 89.332 86.216 7.619 92.754 o
-8 13 6 51.291 47.005 6.142 172.750 o
-8 13 7 144.621 175.014 11.541 41.194 o
-8 13 8 108.494 93.346 9.311 69.666 o
-8 14 1 202.349 204.590 11.189 31.430 o
-8 14 2 120.206 93.454 8.568 69.280 o
-8 14 3 21.937 16.070 9.888 133.339 o
-8 14 4 11.816 7.130 10.123 138.578 o
-8 14 5 26.087 23.591 10.896 108.627 o
-8 14 6 35.888 25.703 11.942 88.792 o
-8 14 7 24.323 15.287 12.363 89.570 o
-8 15 1 80.749 66.968 7.648 104.741 o
-8 15 2 45.592 31.454 10.583 101.045 o
-8 15 3 15.310 8.900 10.270 131.909 o
-8 15 4 19.282 11.590 10.856 116.264 o
-8 15 5 17.047 8.910 11.365 108.803 o
-8 15 6 9.015 6.093 11.825 105.054 o
-8 16 1 176.008 204.307 11.805 33.764 o
-8 16 2 121.775 122.551 9.683 58.428 o
-8 16 3 50.567 47.074 6.612 162.870 o
-8 16 4 77.225 79.037 8.216 97.079 o
-8 16 5 76.042 83.516 8.255 96.022 o
-8 17 1 3.122 4.548 11.062 122.826 o
-8 17 2 3.830 3.951 11.257 118.484 o
-8 17 3 11.516 7.551 11.815 103.886 o
-8 17 4 28.573 18.485 12.744 83.031 o
-8 18 1 2.622 0.616 11.805 109.167 o
-8 18 2 3.688 3.365 11.903 106.423 o
-8 18 3 1.054 -0.381 12.529 97.650 o
-7 -14 2 4.652 2.817 12.226 100.733 o
-7 -14 3 26.875 13.859 12.460 87.705 o
-7 -14 4 50.029 33.812 6.328 181.388 o
-7 -14 5 29.499 16.177 12.950 80.798 o
-7 -14 6 34.627 33.078 13.135 75.049 o
-7 -14 7 5.744 9.477 12.676 92.458 o
-7 -13 1 7.505 11.169 11.795 105.126 o
-7 -13 2 3.037 2.553 11.453 115.259 o
-7 -13 3 26.979 15.620 11.649 98.304 o
-7 -13 4 61.886 40.853 6.289 157.933 o
-7 -13 5 109.308 70.909 8.177 81.548 o
-7 -13 6 18.369 14.925 11.375 106.594 o
-7 -13 7 18.410 11.756 12.108 95.805 o
-7 -13 8 13.755 9.888 12.196 96.588 o
-7 -13 9 0.023 -2.533 12.764 94.414 o
-7 -12 1 24.699 22.994 11.551 99.138 o
-7 -12 2 149.791 132.674 10.152 48.212 o
-7 -12 3 235.684 235.614 12.685 24.738 o
-7 -12 4 342.482 351.553 15.355 13.974 o
-7 -12 5 145.555 155.091 10.622 45.345 o
-7 -12 6 25.282 22.270 11.033 107.115 o
-7 -12 7 14.720 20.197 11.424 106.245 o
-7 -12 8 35.118 27.356 12.177 85.962 o
-7 -12 9 70.452 71.496 8.167 104.674 o
-7 -12 10 50.643 38.917 13.830 64.461 o
-7 -11 1 36.247 18.221 10.768 106.732 o
-7 -11 2 94.924 77.257 8.137 87.777 o
-7 -11 3 51.439 40.139 6.201 176.820 o
-7 -11 4 49.343 54.292 6.758 156.255 o
-7 -11 5 6.055 5.350 10.005 146.746 o
-7 -11 6 2.344 5.751 9.937 151.517 o
-7 -11 7 3.352 4.264 10.289 141.398 o
-7 -11 8 41.074 25.742 5.467 238.811 o
-7 -11 9 30.777 28.178 12.167 87.477 o
-7 -11 10 1.746 2.162 12.030 105.205 o
-7 -10 1 40.392 29.792 5.252 243.663 o
-7 -10 2 170.829 163.228 10.211 40.817 o
-7 -10 3 254.036 240.211 11.874 23.815 o
-7 -10 4 78.551 56.815 6.582 123.714 o
-7 -10 5 16.395 11.385 9.380 152.980 o
-7 -10 6 55.881 50.663 6.132 162.805 o
-7 -10 7 27.914 27.562 5.076 299.756 o
-7 -10 8 22.910 11.199 10.563 119.974 o
-7 -10 9 44.854 25.684 11.541 90.168 o
-7 -10 10 19.661 12.011 11.502 104.562 o
-7 -10 11 10.750 3.482 12.333 96.770 o
-7 -9 1 497.280 504.913 16.451 8.068 o
-7 -9 2 737.578 795.670 20.314 3.984 o
-7 -9 3 685.877 764.665 19.757 4.426 o
-7 -9 4 138.022 161.116 9.409 49.917 o
-7 -9 5 69.321 76.093 6.886 119.401 o
-7 -9 6 177.045 197.519 10.485 36.448 o
-7 -9 7 170.650 193.959 10.759 37.177 o
-7 -9 8 219.921 219.809 11.795 27.874 o
-7 -9 9 124.992 125.690 9.585 57.437 o
-7 -9 10 36.325 25.165 11.786 90.670 o
-7 -9 11 18.000 11.316 12.128 95.758 o
-7 -8 1 287.756 305.858 12.725 18.721 o
-7 -8 2 180.748 179.689 10.201 37.781 o
-7 -8 3 5.087 5.477 8.157 217.434 o
-7 -8 4 6.585 5.027 7.727 238.046 o
-7 -8 5 3.757 -0.968 8.255 219.345 o
-7 -8 6 66.344 51.730 6.025 149.164 o
-7 -8 7 138.479 141.916 9.204 52.878 o
-7 -8 8 24.269 22.026 9.908 128.958 o
-7 -8 9 1.587 3.247 9.947 152.855 o
-7 -8 10 1.437 -1.946 10.710 133.237 o
-7 -8 11 2.316 2.073 11.385 117.083 o
-7 -8 12 1.393 -5.643 12.519 97.691 o
-7 -7 1 717.730 755.775 19.072 4.280 o
-7 -7 2 732.150 794.526 18.759 4.084 o
-7 -7 3 136.634 146.200 8.372 55.588 o
-7 -7 4 79.859 93.874 7.022 101.920 o
-7 -7 5 73.278 90.001 6.739 111.496 o
-7 -7 6 36.511 31.738 4.939 266.442 o
-7 -7 7 246.371 211.789 10.954 26.598 o
-7 -7 8 267.158 245.708 12.001 22.486 o
-7 -7 9 146.412 135.070 9.497 50.772 o
-7 -7 10 28.520 19.835 10.671 112.167 o
-7 -7 11 2.598 1.624 10.876 128.092 o
-7 -7 12 18.764 14.035 12.304 92.510 o
-7 -6 1 1409.130 1498.120 24.755 1.276 o
-7 -6 2 311.361 316.998 11.521 17.752 o
-7 -6 3 14.470 1.682 7.052 264.233 o
-7 -6 4 388.120 410.432 13.057 12.213 o
-7 -6 5 579.014 659.407 16.558 5.969 o
-7 -6 6 748.190 789.958 18.534 4.011 o
-7 -6 7 729.590 767.795 18.984 4.171 o
-7 -6 8 134.346 141.975 9.331 53.532 o
-7 -6 9 66.243 75.516 7.619 112.989 o
-7 -6 10 0.199 -0.264 9.634 165.552 o
-7 -6 11 9.055 13.556 10.661 125.623 o
-7 -6 12 26.331 19.434 12.265 89.398 o
-7 -5 1 66.131 52.962 5.536 157.211 o
-7 -5 2 163.924 140.958 7.922 50.186 o
-7 -5 3 8.651 5.047 6.651 305.663 o
-7 -5 4 230.636 210.703 9.458 29.899 o
-7 -5 5 321.983 335.885 11.776 16.619 o
-7 -5 6 151.225 155.140 8.626 49.703 o
-7 -5 7 1.545 -1.457 8.040 235.040 o
-7 -5 8 20.312 12.852 8.294 182.499 o
-7 -5 9 1.246 -4.235 8.881 193.439 o
-7 -5 10 1.596 -1.174 9.693 162.291 o
-7 -5 11 6.807 6.856 10.514 132.486 o
-7 -5 12 25.896 19.816 11.932 93.879 o
-7 -4 1 117.652 121.514 7.228 71.339 o
-7 -4 2 337.941 369.667 11.473 15.240 o
-7 -4 3 26.564 35.230 4.744 308.784 o
-7 -4 4 299.419 318.915 11.101 18.562 o
-7 -4 5 713.000 683.575 16.294 4.689 o
-7 -4 6 1160.170 1180.130 21.762 1.882 o
-7 -4 7 1074.380 1103.820 21.928 2.140 o
-7 -4 8 264.651 287.275 11.952 21.224 o
-7 -4 9 19.311 18.974 8.891 160.458 o
-7 -4 10 40.267 36.853 5.555 222.809 o
-7 -4 11 67.332 59.681 7.414 121.644 o
-7 -4 12 33.562 33.019 12.177 85.511 o
-7 -4 13 47.756 41.157 14.035 63.330 o
-7 -3 1 102.018 100.769 6.269 90.439 o
-7 -3 2 78.432 93.444 6.123 112.013 o
-7 -3 3 2021.060 2152.140 26.750 0.652 o
-7 -3 4 1701.060 1769.300 24.090 0.919 o
-7 -3 5 2147.710 2204.820 28.403 0.594 o
-7 -3 6 1086.790 1112.060 20.696 2.117 o
-7 -3 7 118.808 131.979 7.883 65.739 o
-7 -3 8 7.026 5.311 7.707 237.950 o
-7 -3 9 10.769 12.099 8.519 187.704 o
-7 -3 10 173.861 203.143 11.042 35.493 o
-7 -3 11 287.423 320.813 14.808 17.153 o
-7 -3 12 126.777 145.232 10.993 49.188 o
-7 -3 13 40.303 27.806 13.302 72.678 o
-7 -2 1 247.575 224.151 8.724 27.971 o
-7 -2 2 165.888 157.154 7.306 49.138 o
-7 -2 3 695.218 727.910 15.268 4.703 o
-7 -2 4 196.230 190.604 8.441 37.398 o
-7 -2 5 14.766 13.468 6.651 272.517 o
-7 -2 6 104.084 83.653 6.533 92.779 o
-7 -2 7 105.198 100.554 7.228 82.383 o
-7 -2 8 0.075 2.563 7.179 294.413 o
-7 -2 9 33.407 25.126 8.705 147.373 o
-7 -2 10 52.284 43.514 6.455 166.571 o
-7 -2 11 68.105 58.586 7.189 124.670 o
-7 -2 12 0.308 -0.039 11.404 118.130 o
-7 -2 13 1.826 2.034 12.304 100.613 o
-7 -1 1 35.475 30.017 4.088 316.302 o
-7 -1 2 82.956 82.079 5.653 117.823 o
-7 -1 3 1189.210 1209.480 19.014 1.825 o
-7 -1 4 2843.340 3006.430 30.075 0.342 o
-7 -1 5 2248.770 2340.520 27.699 0.541 o
-7 -1 6 1226.060 1375.510 21.938 1.603 o
-7 -1 7 94.785 101.914 7.062 89.029 o
-7 -1 8 46.923 49.548 5.487 195.189 o
-7 -1 9 287.380 317.996 12.901 18.306 o
-7 -1 10 141.101 151.139 9.781 49.231 o
-7 -1 11 110.460 107.919 9.282 66.411 o
-7 -1 12 101.491 84.035 8.900 77.091 o
-7 -1 13 15.576 9.634 12.744 88.432 o
-7 0 1 1672.400 1803.590 22.887 0.929 o
-7 0 2 3346.820 3418.540 30.897 0.255 o
-7 0 3 5024.680 5111.090 38.076 0.116 o
-7 0 4 2938.090 2876.920 29.576 0.337 o
-7 0 5 728.429 722.560 15.277 4.482 o
-7 0 6 288.448 298.855 10.641 20.081 o
-7 0 7 20.950 22.026 3.854 455.824 o
-7 0 8 458.533 498.487 14.720 9.074 o
-7 0 9 938.910 1049.810 22.838 2.550 o
-7 0 10 385.843 439.295 15.893 11.145 o
-7 0 11 211.644 240.759 12.813 26.464 o
-7 0 12 49.688 38.164 6.426 175.682 o
-7 0 13 9.063 7.306 12.597 92.849 o
-7 1 1 1444.970 1377.150 19.600 1.328 o
-7 1 2 203.898 192.404 7.560 37.253 o
-7 1 3 5.717 3.169 5.418 462.252 o
-7 1 4 428.565 457.565 11.805 10.689 o
-7 1 5 263.015 238.832 9.096 25.389 o
-7 1 6 47.587 39.846 4.665 229.603 o
-7 1 7 6.938 5.751 6.661 309.608 o
-7 1 8 306.224 317.057 12.050 17.768 o
-7 1 9 73.443 62.165 6.719 124.298 o
-7 1 10 35.664 23.307 10.221 114.753 o
-7 1 11 7.835 2.289 10.504 133.536 o
-7 1 12 6.296 3.766 11.561 111.423 o
-7 2 1 1720.700 1604.070 21.018 0.970 o
-7 2 2 3666.690 3693.710 31.904 0.216 o
-7 2 3 5514.570 5615.290 39.112 0.097 o
-7 2 4 2200.030 2184.120 25.488 0.583 o
-7 2 5 602.146 647.025 14.377 5.945 o
-7 2 6 6.477 7.824 6.387 331.260 o
-7 2 7 174.904 190.271 9.370 39.449 o
-7 2 8 347.879 379.232 13.292 14.027 o
-7 2 9 271.889 305.047 12.744 19.659 o
-7 2 10 311.884 372.464 14.788 14.966 o
-7 2 11 110.695 111.900 9.732 63.310 o
-7 2 12 28.225 29.175 12.079 89.306 o
-7 3 1 5584.850 5754.480 38.956 0.093 o
-7 3 2 3224.670 3085.790 28.804 0.287 o
-7 3 3 1225.470 1164.720 18.133 1.807 o
-7 3 4 78.742 77.081 5.526 126.032 o
-7 3 5 90.908 118.893 6.709 88.732 o
-7 3 6 514.975 589.065 14.544 7.377 o
-7 3 7 2081.320 2216.370 30.359 0.612 o
-7 3 8 1835.260 1981.780 30.085 0.766 o
-7 3 9 320.494 328.706 13.351 16.166 o
-7 3 10 233.934 237.551 12.294 25.201 o
-7 3 11 20.436 17.830 10.778 115.351 o
-7 3 12 11.772 10.778 11.786 103.596 o
-7 4 1 62.994 69.159 5.135 156.581 o
-7 4 2 347.106 383.135 10.465 14.892 o
-7 4 3 410.992 373.002 10.602 12.665 o
-7 4 4 104.763 93.062 5.927 93.460 o
-7 4 5 24.831 22.613 3.678 436.721 o
-7 4 6 449.647 426.365 12.969 10.346 o
-7 4 7 267.363 225.990 10.495 24.467 o
-7 4 8 1.478 1.584 8.040 233.671 o
-7 4 9 35.560 17.028 9.311 135.008 o
-7 4 10 12.361 6.465 9.996 141.683 o
-7 4 11 0.771 -0.421 10.827 130.769 o
-7 4 12 3.121 0.812 11.932 106.641 o
-7 5 1 3463.320 3517.250 31.533 0.240 o
-7 5 2 1714.310 1813.180 23.043 0.899 o
-7 5 3 777.725 796.785 15.268 3.933 o
-7 5 4 9.799 10.680 6.113 336.204 o
-7 5 5 1023.360 1091.150 19.356 2.314 o
-7 5 6 658.218 709.718 16.500 5.004 o
-7 5 7 700.571 764.587 18.143 4.406 o
-7 5 8 608.637 663.202 18.016 5.547 o
-7 5 9 192.920 200.463 10.798 33.469 o
-7 5 10 55.922 49.666 6.768 150.391 o
-7 5 11 20.611 13.918 11.473 104.180 o
-7 5 12 8.094 -0.665 13.057 87.977 o
-7 6 1 1593.680 1540.020 20.979 1.095 o
-7 6 2 151.671 164.353 7.531 51.343 o
-7 6 3 642.835 682.831 14.837 5.342 o
-7 6 4 254.964 303.638 10.328 22.453 o
-7 6 5 2076.460 2151.420 28.276 0.629 o
-7 6 6 1959.740 2038.270 28.334 0.699 o
-7 6 7 450.790 479.307 14.788 9.411 o
-7 6 8 305.823 305.193 12.676 17.784 o
-7 6 9 34.297 29.009 4.998 276.407 o
-7 6 10 50.951 36.345 5.947 187.773 o
-7 6 11 43.307 42.800 6.602 177.757 o
-7 7 1 285.389 258.511 9.301 22.511 o
-7 7 2 0.033 -1.829 5.888 443.491 o
-7 7 3 66.137 74.137 5.643 140.918 o
-7 7 4 123.072 104.016 6.749 75.188 o
-7 7 5 385.679 323.923 11.707 14.155 o
-7 7 6 46.040 28.080 5.252 230.110 o
-7 7 7 95.062 92.740 7.345 89.495 o
-7 7 8 5.469 -2.954 8.910 186.900 o
-7 7 9 0.258 -3.756 9.565 167.871 o
-7 7 10 9.269 6.592 10.827 123.936 o
-7 7 11 8.297 1.633 12.148 100.875 o
-7 8 1 757.994 856.182 16.695 3.832 o
-7 8 2 140.215 99.742 6.357 70.108 o
-7 8 3 1140.330 1190.010 20.490 1.924 o
-7 8 4 478.178 503.954 14.006 8.752 o
-7 8 5 849.165 920.177 19.473 3.165 o
-7 8 6 956.781 999.174 21.058 2.606 o
-7 8 7 313.934 352.169 13.302 15.955 o
-7 8 8 111.507 112.330 8.362 70.083 o
-7 8 9 23.250 22.192 10.446 118.692 o
-7 8 10 49.686 40.570 6.602 169.324 o
-7 8 11 53.189 37.156 6.494 169.157 o
-7 9 1 295.170 336.941 11.091 18.297 o
-7 9 2 193.955 198.468 9.018 36.245 o
-7 9 3 2439.470 2590.560 31.621 0.454 o
-7 9 4 1539.730 1535.670 24.970 1.129 o
-7 9 5 702.011 730.590 17.938 4.522 o
-7 9 6 241.067 240.925 11.238 25.463 o
-7 9 7 31.474 21.801 9.037 142.824 o
-7 9 8 62.326 60.884 6.485 140.613 o
-7 9 9 82.826 78.196 7.824 97.596 o
-7 9 10 93.418 88.231 9.419 76.075 o
-7 10 1 58.818 45.069 4.861 190.780 o
-7 10 2 162.479 165.478 8.666 45.786 o
-7 10 3 25.343 17.028 7.697 193.715 o
-7 10 4 0.052 4.000 7.590 262.132 o
-7 10 5 183.784 162.680 9.282 40.491 o
-7 10 6 66.995 46.272 5.917 153.950 o
-7 10 7 0.320 -4.431 9.321 176.715 o
-7 10 8 17.319 6.641 10.250 131.757 o
-7 10 9 23.648 23.552 11.737 96.766 o
-7 10 10 0.489 -1.672 12.470 98.755 o
-7 11 1 329.864 329.870 12.050 16.273 o
-7 11 2 990.062 1050.340 20.872 2.437 o
-7 11 3 729.467 767.541 18.084 4.211 o
-7 11 4 459.782 486.300 15.258 9.082 o
-7 11 5 333.025 358.155 13.605 14.894 o
-7 11 6 42.465 42.154 5.409 215.842 o
-7 11 7 5.816 2.709 9.849 152.527 o
-7 11 8 60.531 46.634 6.465 152.288 o
-7 11 9 54.505 38.526 12.959 70.436 o
-7 12 1 940.870 1067.920 21.478 2.543 o
-7 12 2 747.613 788.657 19.072 3.997 o
-7 12 3 284.370 326.955 12.676 18.351 o
-7 12 4 104.811 95.292 7.864 79.833 o
-7 12 5 66.250 52.424 6.064 148.147 o
-7 12 6 41.178 39.064 5.262 228.066 o
-7 12 7 122.723 122.394 9.370 59.514 o
-7 12 8 199.275 224.934 13.253 27.804 o
-7 12 9 90.499 77.687 9.086 82.285 o
-7 13 1 33.332 32.002 5.516 250.145 o
-7 13 2 14.287 7.453 8.538 185.334 o
-7 13 3 121.512 106.158 7.824 70.038 o
-7 13 4 34.598 22.808 9.477 129.865 o
-7 13 5 5.559 2.122 9.340 169.435 o
-7 13 6 24.545 19.189 10.632 115.330 o
-7 13 7 35.302 24.941 12.128 86.904 o
-7 13 8 0.282 1.849 12.353 100.390 o
-7 14 1 416.774 473.194 15.923 9.991 o
-7 14 2 326.836 335.767 13.810 15.528 o
-7 14 3 210.797 218.273 11.316 29.503 o
-7 14 4 22.142 14.563 10.054 130.004 o
-7 14 5 25.279 17.204 10.661 114.941 o
-7 14 6 34.945 23.904 12.059 88.046 o
-7 14 7 71.079 47.465 7.247 126.309 o
-7 15 1 88.619 95.664 7.922 87.884 o
-7 15 2 23.047 14.397 9.996 130.712 o
-7 15 3 20.523 16.070 10.094 129.756 o
-7 15 4 57.542 56.776 6.974 140.209 o
-7 15 5 64.592 56.160 7.238 128.573 o
-7 15 6 141.350 147.423 11.062 45.675 o
-7 15 7 67.126 37.166 6.983 140.290 o
-7 16 1 33.908 22.916 10.514 110.892 o
-7 16 2 26.495 14.319 10.416 119.686 o
-7 16 3 2.362 3.257 10.514 136.539 o
-7 16 4 5.403 -1.878 11.287 118.082 o
-7 16 5 4.847 -3.981 12.539 96.263 o
-7 16 6 2.587 3.678 12.490 97.146 o
-7 17 1 96.750 99.840 8.724 76.869 o
-7 17 2 32.690 27.865 11.854 90.700 o
-7 17 3 18.157 12.314 11.864 99.424 o
-7 17 4 20.892 11.786 12.343 91.627 o
-7 18 1 2.265 -0.137 11.629 112.751 o
-7 18 2 10.344 7.375 11.805 104.571 o
-7 18 3 36.712 27.796 13.037 76.154 o
-7 19 1 0.303 -0.626 12.470 98.817 o
-6 -15 2 6.100 4.832 12.353 97.861 o
-6 -15 3 0.608 -2.103 12.206 103.024 o
-6 -15 4 11.800 -2.846 12.460 95.121 o
-6 -15 5 0.785 -2.347 12.617 96.382 o
-6 -15 6 0.255 -9.106 12.646 96.102 o
-6 -15 7 1.021 -8.998 12.959 91.302 o
-6 -14 1 40.153 31.484 5.849 219.067 o
-6 -14 2 4.050 5.536 11.355 116.011 o
-6 -14 3 14.956 7.531 11.463 108.390 o
-6 -14 4 43.767 28.618 11.962 85.090 o
-6 -14 5 148.441 126.267 10.279 48.837 o
-6 -14 6 100.564 94.745 9.252 72.871 o
-6 -14 7 57.056 53.617 7.414 134.709 o
-6 -14 8 33.962 31.542 12.842 78.371 o
-6 -14 9 7.218 4.695 12.451 96.019 o
-6 -13 1 12.717 3.032 11.111 117.150 o
-6 -13 2 89.668 83.428 8.128 89.080 o
-6 -13 3 141.114 144.537 10.377 48.125 o
-6 -13 4 219.967 250.334 13.126 24.977 o
-6 -13 5 108.895 139.725 10.348 56.779 o
-6 -13 6 24.930 21.693 11.169 105.207 o
-6 -13 7 0.227 4.196 10.749 131.743 o
-6 -13 8 0.069 -0.147 11.443 117.435 o
-6 -13 9 33.027 27.288 12.646 81.370 o
-6 -13 10 19.951 19.199 13.047 82.020 o
-6 -12 1 6.660 1.125 10.025 147.373 o
-6 -12 2 30.343 22.486 10.270 117.479 o
-6 -12 3 3.509 2.298 9.820 155.536 o
-6 -12 4 14.508 4.656 9.976 141.235 o
-6 -12 5 49.149 26.271 10.680 99.190 o
-6 -12 6 48.477 40.462 5.937 188.831 o
-6 -12 7 36.775 28.168 10.710 104.715 o
-6 -12 8 0.645 -3.824 11.013 126.477 o
-6 -12 9 16.601 11.404 11.649 103.655 o
-6 -12 10 2.719 -1.105 11.962 106.443 o
-6 -11 1 29.561 13.752 9.683 132.997 o
-6 -11 2 190.008 193.479 10.749 34.414 o
-6 -11 3 439.888 463.472 16.099 9.564 o
-6 -11 4 482.270 535.956 17.263 7.946 o
-6 -11 5 133.606 147.129 9.546 52.312 o
-6 -11 6 105.565 119.528 8.675 69.330 o
-6 -11 7 65.941 53.627 6.690 137.235 o
-6 -11 8 53.020 37.665 5.594 191.968 o
-6 -11 9 115.265 113.670 9.409 63.114 o
-6 -11 10 111.227 114.394 10.025 61.281 o
-6 -11 11 74.386 58.830 7.932 109.242 o
-6 -10 1 226.462 241.013 11.424 26.619 o
-6 -10 2 297.824 330.838 13.341 17.194 o
-6 -10 3 171.202 206.693 10.632 36.369 o
-6 -10 4 24.107 16.647 8.773 159.941 o
-6 -10 5 0.764 -4.431 8.538 209.842 o
-6 -10 6 6.461 2.289 8.587 197.643 o
-6 -10 7 100.046 95.635 7.736 83.035 o
-6 -10 8 106.212 119.216 8.998 67.410 o
-6 -10 9 97.423 122.795 9.331 68.181 o
-6 -10 10 23.658 17.634 11.600 100.021 o
-6 -10 11 7.947 4.577 12.089 101.401 o
-6 -9 1 2.526 -0.929 8.411 213.409 o
-6 -9 2 3.810 3.110 7.834 239.485 o
-6 -9 3 139.411 115.841 7.903 61.178 o
-6 -9 4 54.666 58.928 5.966 161.819 o
-6 -9 5 77.963 77.589 6.954 110.405 o
-6 -9 6 21.175 10.260 8.421 178.581 o
-6 -9 7 51.643 35.650 5.164 209.249 o
-6 -9 8 3.794 2.044 8.920 187.310 o
-6 -9 9 10.682 1.526 9.810 150.100 o
-6 -9 10 68.275 54.380 7.277 125.238 o
-6 -9 11 19.026 5.712 11.727 102.570 o
-6 -9 12 10.121 7.218 12.255 97.511 o
-6 -8 1 666.136 691.732 17.439 4.961 o
-6 -8 2 1478.060 1576.080 25.821 1.163 o
-6 -8 3 617.731 665.344 16.539 5.553 o
-6 -8 4 487.717 554.168 15.268 7.981 o
-6 -8 5 346.941 369.951 12.685 14.447 o
-6 -8 6 197.180 211.300 10.123 33.202 o
-6 -8 7 277.354 287.402 11.942 20.384 o
-6 -8 8 527.924 601.007 17.644 6.796 o
-6 -8 9 443.777 544.583 17.360 8.497 o
-6 -8 10 251.563 303.726 13.918 20.125 o
-6 -8 11 55.181 48.678 7.081 145.755 o
-6 -8 12 17.309 10.426 12.304 93.662 o
-6 -7 1 200.870 188.482 9.321 35.487 o
-6 -7 2 158.031 157.203 8.490 48.174 o
-6 -7 3 196.908 178.241 8.734 37.846 o
-6 -7 4 1.182 -2.054 6.895 319.376 o
-6 -7 5 164.339 150.660 8.216 48.142 o
-6 -7 6 332.212 386.196 12.979 14.603 o
-6 -7 7 552.943 609.849 16.813 6.518 o
-6 -7 8 148.864 190.565 10.172 42.420 o
-6 -7 9 63.748 52.062 6.328 147.023 o
-6 -7 10 2.214 2.435 9.526 166.184 o
-6 -7 11 3.309 1.956 10.358 140.411 o
-6 -7 12 0.759 1.937 11.551 114.513 o
-6 -6 1 393.015 408.652 12.519 12.224 o
-6 -6 2 777.434 828.709 17.253 3.783 o
-6 -6 3 48.058 44.844 5.057 209.991 o
-6 -6 4 26.740 31.709 4.646 322.021 o
-6 -6 5 114.505 116.086 7.199 74.100 o
-6 -6 6 0.244 1.995 6.866 321.865 o
-6 -6 7 140.339 116.536 7.834 61.007 o
-6 -6 8 242.403 227.653 10.817 26.356 o
-6 -6 9 153.344 160.382 9.878 45.245 o
-6 -6 10 24.512 12.871 9.605 139.240 o
-6 -6 11 5.930 5.849 10.240 140.292 o
-6 -6 12 1.242 -5.096 11.629 113.200 o
-6 -6 13 5.756 7.600 12.568 94.294 o
-6 -5 1 762.403 804.815 16.392 3.963 o
-6 -5 2 399.651 419.792 12.059 11.961 o
-6 -5 3 285.241 355.348 11.042 18.362 o
-6 -5 4 1243.640 1284.290 20.725 1.655 o
-6 -5 5 755.461 766.397 16.402 4.118 o
-6 -5 6 1587.970 1675.910 24.950 1.030 o
-6 -5 7 1571.290 1708.650 26.095 1.027 o
-6 -5 8 814.027 946.486 20.666 3.225 o
-6 -5 9 241.815 271.548 12.050 23.389 o
-6 -5 10 48.451 41.753 5.555 198.253 o
-6 -5 11 41.524 35.102 5.712 216.348 o
-6 -5 12 21.615 19.767 11.482 102.252 o
-6 -5 13 24.923 15.864 13.174 79.678 o
-6 -4 1 0.266 0.919 5.497 502.818 o
-6 -4 2 3.653 2.905 5.604 450.801 o
-6 -4 3 1383.860 1402.560 20.402 1.381 o
-6 -4 4 1448.040 1560.770 21.742 1.217 o
-6 -4 5 819.989 802.301 16.373 3.655 o
-6 -4 6 763.716 778.994 16.647 4.022 o
-6 -4 7 145.913 144.958 8.225 53.596 o
-6 -4 8 26.654 16.128 7.648 194.135 o
-6 -4 9 6.665 -0.147 8.157 219.422 o
-6 -4 10 12.477 5.575 9.018 171.337 o
-6 -4 11 69.493 70.049 7.590 112.939 o
-6 -4 12 75.977 83.018 8.666 92.210 o
-6 -4 13 14.528 11.062 12.607 90.341 o
-6 -3 1 345.217 374.665 10.406 15.170 o
-6 -3 2 181.050 220.513 8.059 38.018 o
-6 -3 3 3.167 2.484 5.223 519.402 o
-6 -3 4 233.140 216.963 8.382 30.359 o
-6 -3 5 762.739 738.747 15.268 4.200 o
-6 -3 6 928.354 920.979 17.703 2.896 o
-6 -3 7 595.341 629.468 15.600 6.026 o
-6 -3 8 111.334 95.635 6.827 82.898 o
-6 -3 9 0.642 -0.049 7.981 240.232 o
-6 -3 10 0.118 -0.665 8.754 200.585 o
-6 -3 11 6.218 -0.137 10.035 147.878 o
-6 -3 12 0.307 3.286 10.856 129.387 o
-6 -3 13 25.044 19.111 13.037 80.690 o
-6 -2 1 1038.460 1169.980 17.458 2.200 o
-6 -2 2 2274.530 2473.150 25.214 0.516 o
-6 -2 3 1452.950 1529.410 19.894 1.236 o
-6 -2 4 3380.560 3281.990 30.066 0.259 o
-6 -2 5 2094.910 2072.000 24.901 0.642 o
-6 -2 6 1788.390 1955.900 25.322 0.808 o
-6 -2 7 551.373 630.848 15.414 6.535 o
-6 -2 8 20.822 24.109 4.362 399.215 o
-6 -2 9 298.899 347.005 13.067 16.882 o
-6 -2 10 85.464 94.060 7.590 92.970 o
-6 -2 11 130.885 146.102 10.133 51.110 o
-6 -2 12 92.488 92.828 8.969 78.691 o
-6 -2 13 36.206 22.799 12.920 78.192 o
-6 -1 1 1315.910 1301.800 17.947 1.551 o
-6 -1 2 3111.600 3113.540 27.562 0.299 o
-6 -1 3 1191.460 1090.940 16.500 1.956 o
-6 -1 4 829.671 766.328 14.358 3.754 o
-6 -1 5 314.757 263.078 8.998 20.384 o
-6 -1 6 137.555 123.040 6.827 64.624 o
-6 -1 7 47.035 39.112 4.920 223.965 o
-6 -1 8 127.473 130.737 7.580 64.034 o
-6 -1 9 223.536 245.943 10.944 27.168 o
-6 -1 10 126.624 124.908 9.125 58.961 o
-6 -1 11 31.503 19.972 10.436 114.527 o
-6 -1 12 12.027 10.514 11.345 111.163 o
-6 -1 13 0.940 1.076 12.128 104.032 o
-6 0 1 35.276 36.462 3.766 318.037 o
-6 0 2 409.496 410.951 9.908 12.244 o
-6 0 3 1699.230 1732.360 20.373 0.942 o
-6 0 4 2918.500 3002.660 27.464 0.332 o
-6 0 5 513.555 516.014 12.108 8.237 o
-6 0 6 325.512 367.916 10.993 16.003 o
-6 0 7 51.731 52.434 5.076 192.778 o
-6 0 8 6.892 1.037 6.944 294.679 o
-6 0 9 80.394 90.334 7.531 97.981 o
-6 0 10 0.684 4.196 8.538 206.835 o
-6 0 11 86.517 75.252 7.864 95.786 o
-6 0 12 34.206 22.544 12.040 88.808 o
-6 0 13 4.846 5.790 12.421 97.079 o
-6 1 1 4312.950 4275.970 31.171 0.159 o
-6 1 2 4645.340 4392.410 31.523 0.142 o
-6 1 3 4434.530 4417.440 32.041 0.150 o
-6 1 4 2440.890 2453.630 25.019 0.476 o
-6 1 5 1308.040 1404.750 19.767 1.480 o
-6 1 6 447.839 506.888 12.734 9.513 o
-6 1 7 403.462 483.034 13.272 10.729 o
-6 1 8 429.664 467.140 14.289 10.092 o
-6 1 9 389.687 458.357 14.925 11.038 o
-6 1 10 169.062 174.740 10.260 40.013 o
-6 1 11 206.086 239.644 12.353 27.587 o
-6 1 12 33.946 25.312 12.079 87.916 o
-6 1 13 16.796 14.338 12.685 88.068 o
-6 2 1 899.096 811.329 13.536 3.319 o
-6 2 2 194.320 173.889 6.729 41.917 o
-6 2 3 146.235 122.218 5.947 64.487 o
-6 2 4 1.342 3.384 4.626 668.766 o
-6 2 5 118.610 135.862 6.749 70.005 o
-6 2 6 29.452 32.178 4.411 322.137 o
-6 2 7 232.460 239.155 9.761 27.810 o
-6 2 8 372.384 437.300 13.810 12.089 o
-6 2 9 30.559 26.085 5.086 291.508 o
-6 2 10 21.139 12.099 9.438 146.684 o
-6 2 11 5.555 2.875 10.045 146.999 o
-6 2 12 0.035 -0.333 11.257 121.360 o
-6 3 1 3314.310 3288.480 27.131 0.266 o
-6 3 2 2891.450 2919.970 25.801 0.343 o
-6 3 3 1417.000 1516.110 19.258 1.283 o
-6 3 4 304.364 327.571 9.712 18.675 o
-6 3 5 0.716 4.675 5.438 493.314 o
-6 3 6 4.026 1.399 6.084 389.250 o
-6 3 7 26.168 26.691 4.460 350.295 o
-6 3 8 108.803 118.697 7.932 72.190 o
-6 3 9 320.106 350.751 13.703 15.543 o
-6 3 10 131.992 141.515 9.194 54.715 o
-6 3 11 41.513 31.581 11.199 94.656 o
-6 3 12 1.518 0.528 11.492 115.652 o
-6 4 1 4421.970 4329.090 31.581 0.153 o
-6 4 2 3139.810 3075.770 27.004 0.298 o
-6 4 3 595.986 630.153 12.627 6.220 o
-6 4 4 915.547 957.568 16.099 2.906 o
-6 4 5 1005.780 1136.450 18.632 2.311 o
-6 4 6 1434.110 1504.240 22.789 1.256 o
-6 4 7 1572.070 1740.560 25.919 1.014 o
-6 4 8 583.697 635.405 16.911 6.019 o
-6 4 9 390.669 409.474 14.759 11.712 o
-6 4 10 87.466 82.578 8.020 91.528 o
-6 4 11 32.090 28.745 11.492 95.523 o
-6 4 12 7.131 6.064 12.177 100.020 o
-6 5 1 0.214 5.585 4.675 656.216 o
-6 5 2 89.945 97.424 5.536 105.789 o
-6 5 3 625.278 647.250 13.047 5.784 o
-6 5 4 398.743 411.860 11.081 12.328 o
-6 5 5 311.663 343.856 10.720 17.384 o
-6 5 6 283.536 292.850 10.720 20.555 o
-6 5 7 15.794 11.023 7.394 230.394 o
-6 5 8 27.069 14.974 8.421 168.034 o
-6 5 9 4.227 -0.147 8.587 202.447 o
-6 5 10 0.361 -0.362 9.653 164.733 o
-6 5 11 14.673 8.939 11.160 113.681 o
-6 5 12 15.254 10.984 12.216 95.555 o
-6 6 1 1085.720 1130.590 16.959 2.140 o
-6 6 2 423.362 439.070 10.974 11.220 o
-6 6 3 30.685 32.071 4.059 337.158 o
-6 6 4 356.176 340.687 10.299 15.468 o
-6 6 5 358.081 344.746 11.101 15.038 o
-6 6 6 388.095 435.872 13.067 11.832 o
-6 6 7 568.312 558.080 15.581 6.761 o
-6 6 8 280.556 267.010 11.786 20.947 o
-6 6 9 59.368 53.461 5.849 161.174 o
-6 6 10 1.321 -3.902 10.230 146.005 o
-6 6 11 0.419 -5.193 11.492 116.278 o
-6 7 1 1893.740 2020.050 23.405 0.741 o
-6 7 2 596.524 653.304 13.507 6.028 o
-6 7 3 1447.810 1635.400 21.987 1.180 o
-6 7 4 1330.530 1411.980 21.331 1.437 o
-6 7 5 1218.190 1304.820 21.537 1.673 o
-6 7 6 841.108 908.655 19.141 3.232 o
-6 7 7 455.129 478.671 14.788 9.329 o
-6 7 8 228.170 216.131 10.778 28.397 o
-6 7 9 49.303 45.489 5.829 185.386 o
-6 7 10 49.952 39.112 6.054 184.154 o
-6 7 11 22.170 17.116 12.118 93.265 o
-6 8 1 7.784 4.303 5.536 426.881 o
-6 8 2 670.052 664.131 14.426 5.205 o
-6 8 3 169.608 203.162 8.636 40.619 o
-6 8 4 304.537 298.093 10.543 19.152 o
-6 8 5 132.486 105.415 7.042 69.300 o
-6 8 6 13.454 1.526 7.580 235.558 o
-6 8 7 12.773 4.108 8.186 204.501 o
-6 8 8 4.734 -0.587 9.027 183.104 o
-6 8 9 23.996 15.698 10.250 124.169 o
-6 8 10 20.809 13.399 11.482 104.049 o
-6 8 11 15.701 9.829 12.255 95.037 o
-6 9 1 323.567 323.522 10.495 17.387 o
-6 9 2 30.285 25.449 4.088 356.124 o
-6 9 3 742.919 719.665 15.933 4.366 o
-6 9 4 553.017 549.786 14.563 7.115 o
-6 9 5 553.721 524.200 15.043 7.236 o
-6 9 6 891.741 918.563 20.265 2.982 o
-6 9 7 85.178 69.784 6.768 109.686 o
-6 9 8 36.928 20.344 9.927 120.197 o
-6 9 9 6.234 2.044 10.543 133.692 o
-6 9 10 5.632 1.408 11.561 112.251 o
-6 10 1 232.985 270.462 9.908 26.060 o
-6 10 2 1586.390 1685.760 24.628 1.029 o
-6 10 3 1186.110 1234.370 21.752 1.785 o
-6 10 4 690.194 745.104 17.390 4.580 o
-6 10 5 520.138 529.081 15.463 7.645 o
-6 10 6 226.797 202.751 10.397 29.721 o
-6 10 7 63.710 51.172 5.810 157.140 o
-6 10 8 44.520 36.482 5.458 216.126 o
-6 10 9 48.113 31.914 12.118 81.265 o
-6 10 10 44.699 37.372 12.979 73.132 o
-6 11 1 167.835 168.148 8.499 44.721 o
-6 11 2 374.623 391.086 12.725 13.046 o
-6 11 3 7.140 1.496 7.365 263.022 o
-6 11 4 31.608 12.666 7.903 180.151 o
-6 11 5 9.128 3.658 8.177 211.226 o
-6 11 6 3.280 0.890 8.578 203.621 o
-6 11 7 22.974 14.172 9.761 136.220 o
-6 11 8 42.962 20.422 11.003 99.238 o
-6 11 9 9.540 3.658 11.766 106.347 o
-6 12 1 648.950 677.833 16.725 5.203 o
-6 12 2 433.851 428.028 13.644 10.583 o
-6 12 3 439.004 437.466 14.143 10.248 o
-6 12 4 396.840 410.315 14.563 11.578 o
-6 12 5 111.240 110.354 8.235 71.282 o
-6 12 6 49.852 38.663 5.458 201.359 o
-6 12 7 5.743 6.406 10.338 137.700 o
-6 12 8 25.694 10.925 11.492 102.253 o
-6 12 9 19.437 16.647 12.617 87.728 o
-6 13 1 481.694 544.778 15.913 8.071 o
-6 13 2 381.227 422.179 14.123 11.968 o
-6 13 3 254.856 295.305 12.255 21.403 o
-6 13 4 269.307 271.000 12.265 21.239 o
-6 13 5 114.235 107.841 8.392 69.733 o
-6 13 6 58.812 43.876 6.093 164.344 o
-6 13 7 84.393 63.192 7.423 105.880 o
-6 13 8 72.783 68.141 8.177 104.101 o
-6 14 1 6.220 -4.274 8.675 195.742 o
-6 14 2 1.557 1.800 8.617 203.632 o
-6 14 3 9.890 7.629 8.969 174.825 o
-6 14 4 13.605 6.074 9.389 157.874 o
-6 14 5 7.189 5.233 9.820 151.189 o
-6 14 6 11.578 3.413 11.042 119.025 o
-6 14 7 19.667 9.722 12.118 95.574 o
-6 15 1 242.699 251.332 12.128 24.054 o
-6 15 2 212.031 216.415 11.414 29.344 o
-6 15 3 59.780 45.118 6.113 161.514 o
-6 15 4 28.919 22.828 10.817 108.627 o
-6 15 5 30.227 26.300 11.551 96.041 o
-6 15 6 19.501 17.859 11.913 97.050 o
-6 15 7 35.459 27.982 13.341 73.555 o
-6 16 1 99.459 106.882 8.519 75.423 o
-6 16 2 150.857 171.278 10.475 43.118 o
-6 16 3 66.738 66.567 7.110 123.277 o
-6 16 4 89.555 85.737 8.587 84.745 o
-6 16 5 49.598 33.694 6.025 190.709 o
-6 16 6 41.933 24.686 13.438 71.424 o
-6 17 1 21.638 12.402 10.700 117.698 o
-6 17 2 0.224 -0.557 10.798 131.801 o
-6 17 3 0.379 -2.504 11.473 116.693 o
-6 17 4 1.788 -0.401 11.776 110.182 o
-6 17 5 8.045 4.685 12.500 95.020 o
-6 18 1 49.969 36.178 6.005 188.178 o
-6 18 2 8.166 2.484 11.962 103.813 o
-6 18 3 12.489 11.345 12.265 95.775 o
-6 19 1 8.147 6.357 12.412 96.005 o
-6 19 2 34.334 25.860 13.272 74.781 o
-5 -16 2 45.429 31.953 13.556 68.649 o
-5 -16 3 19.449 12.676 12.236 93.453 o
-5 -16 4 6.073 -0.714 12.177 101.522 o
-5 -16 5 14.183 10.964 12.177 96.522 o
-5 -16 6 26.485 14.778 12.950 81.882 o
-5 -16 7 30.773 15.659 13.478 75.022 o
-5 -15 1 61.617 52.776 7.423 130.285 o
-5 -15 2 30.280 22.799 12.059 89.971 o
-5 -15 3 11.186 9.497 11.551 108.115 o
-5 -15 4 10.158 9.086 11.287 113.505 o
-5 -15 5 29.356 21.195 11.874 93.051 o
-5 -15 6 43.384 40.100 6.749 175.859 o
-5 -15 7 55.252 52.571 7.375 137.900 o
-5 -15 8 32.904 24.852 13.067 77.343 o
-5 -14 1 1.035 -3.091 11.120 123.844 o
-5 -14 2 1.933 3.022 10.387 140.211 o
-5 -14 3 0.010 -0.831 10.485 139.920 o
-5 -14 4 5.859 5.340 10.553 132.640 o
-5 -14 5 0.069 -3.169 10.788 132.131 o
-5 -14 6 4.254 -0.186 10.866 127.836 o
-5 -14 7 0.016 -7.668 11.502 116.265 o
-5 -14 8 14.173 4.851 11.659 105.962 o
-5 -14 9 2.562 4.656 11.825 108.005 o
-5 -13 1 28.041 16.813 10.406 118.139 o
-5 -13 2 42.968 24.559 10.495 105.612 o
-5 -13 3 74.619 70.097 7.140 114.198 o
-5 -13 4 159.152 163.189 10.230 42.920 o
-5 -13 5 228.540 271.881 13.165 23.399 o
-5 -13 6 176.349 187.347 11.209 35.962 o
-5 -13 7 169.730 189.225 11.228 36.757 o
-5 -13 8 68.789 45.959 6.641 139.182 o
-5 -13 9 0.321 -1.262 11.619 113.794 o
-5 -13 10 3.011 -0.421 12.402 98.991 o
-5 -12 1 83.890 77.335 7.394 101.376 o
-5 -12 2 116.399 132.889 9.037 61.306 o
-5 -12 3 158.098 194.154 10.524 39.661 o
-5 -12 4 265.095 290.356 12.744 20.538 o
-5 -12 5 170.197 174.378 10.240 39.890 o
-5 -12 6 154.038 140.518 9.252 49.016 o
-5 -12 7 62.321 60.366 6.641 138.328 o
-5 -12 8 42.117 40.589 5.839 204.544 o
-5 -12 9 28.093 30.867 11.443 97.481 o
-5 -12 10 44.628 48.443 6.934 162.916 o
-5 -12 11 43.630 37.587 6.514 184.111 o
-5 -11 1 0.326 -2.484 8.578 208.589 o
-5 -11 2 1.960 0.557 8.245 222.426 o
-5 -11 3 37.354 26.574 9.047 135.070 o
-5 -11 4 26.008 15.483 8.675 161.328 o
-5 -11 5 27.546 18.397 8.910 151.545 o
-5 -11 6 19.946 6.690 8.920 165.603 o
-5 -11 7 0.837 3.188 8.959 188.642 o
-5 -11 8 18.172 17.595 9.908 135.159 o
-5 -11 9 8.662 8.421 10.436 132.636 o
-5 -11 10 3.421 -2.005 11.169 121.539 o
-5 -11 11 0.002 5.624 11.531 114.407 o
-5 -10 1 460.619 489.479 15.209 9.043 o
-5 -10 2 559.763 647.230 17.507 6.164 o
-5 -10 3 903.470 1065.800 21.449 2.661 o
-5 -10 4 341.348 345.802 12.529 15.220 o
-5 -10 5 232.449 248.476 11.052 26.084 o
-5 -10 6 207.965 169.224 9.517 35.564 o
-5 -10 7 11.374 6.553 8.754 181.556 o
-5 -10 8 27.711 15.091 9.340 141.975 o
-5 -10 9 39.143 32.697 5.203 245.043 o
-5 -10 10 63.667 60.131 7.042 130.540 o
-5 -10 11 50.784 31.601 12.500 76.638 o
-5 -10 12 34.610 23.278 13.077 76.987 o
-5 -9 1 250.694 269.993 11.081 23.550 o
-5 -9 2 677.149 711.156 17.145 4.814 o
-5 -9 3 317.925 309.115 11.365 17.685 o
-5 -9 4 535.165 540.896 14.954 7.391 o
-5 -9 5 663.512 702.529 17.018 4.962 o
-5 -9 6 420.292 487.523 14.974 9.943 o
-5 -9 7 209.423 262.423 11.404 27.251 o
-5 -9 8 130.531 156.881 9.321 52.607 o
-5 -9 9 196.737 221.403 11.482 30.685 o
-5 -9 10 115.535 125.191 9.331 61.510 o
-5 -9 11 82.182 89.659 8.587 87.606 o
-5 -9 12 17.077 11.600 12.108 96.334 o
-5 -8 1 128.450 116.995 7.472 66.713 o
-5 -8 2 1.665 0.430 6.788 326.869 o
-5 -8 3 114.853 112.927 7.101 75.178 o
-5 -8 4 0.636 0.254 6.788 331.002 o
-5 -8 5 4.208 -0.518 6.846 313.272 o
-5 -8 6 1.156 2.269 7.101 297.971 o
-5 -8 7 3.914 4.284 7.521 257.220 o
-5 -8 8 0.079 -0.743 8.235 226.674 o
-5 -8 9 0.944 -7.453 9.233 179.408 o
-5 -8 10 9.264 4.587 9.722 152.564 o
-5 -8 11 0.833 -1.897 10.690 134.091 o
-5 -8 12 6.894 3.169 11.463 113.132 o
-5 -7 1 1412.230 1555.680 23.346 1.249 o
-5 -7 2 2327.520 2401.540 28.530 0.509 o
-5 -7 3 700.632 760.049 16.040 4.514 o
-5 -7 4 608.567 594.816 14.329 6.163 o
-5 -7 5 228.744 205.803 9.340 30.546 o
-5 -7 6 10.980 14.534 6.934 263.759 o
-5 -7 7 285.208 304.313 11.668 19.529 o
-5 -7 8 259.641 283.823 11.473 22.040 o
-5 -7 9 366.823 391.497 14.201 12.863 o
-5 -7 10 168.435 161.380 9.976 41.947 o
-5 -7 11 67.752 46.458 6.367 144.804 o
-5 -7 12 12.058 5.947 11.404 111.162 o
-5 -7 13 3.567 -0.499 12.431 98.341 o
-5 -6 1 907.134 920.226 16.989 2.991 o
-5 -6 2 685.939 721.641 14.867 4.816 o
-5 -6 3 705.210 748.684 15.043 4.563 o
-5 -6 4 1118.900 1178.370 19.121 1.992 o
-5 -6 5 740.084 871.020 17.008 3.881 o
-5 -6 6 415.728 468.382 13.204 10.618 o
-5 -6 7 720.050 792.736 17.703 4.207 o
-5 -6 8 355.886 376.513 12.998 13.879 o
-5 -6 9 301.182 311.844 12.734 17.822 o
-5 -6 10 59.101 46.194 6.084 162.337 o
-5 -6 11 26.222 23.356 10.495 115.621 o
-5 -6 12 1.453 -1.086 11.081 124.494 o
-5 -6 13 8.387 3.844 12.451 95.769 o
-5 -5 1 61.806 64.884 5.096 162.440 o
-5 -5 2 31.614 26.124 3.678 373.404 o
-5 -5 3 347.351 341.528 10.113 15.910 o
-5 -5 4 290.317 327.581 10.015 19.382 o
-5 -5 5 0.023 -1.203 5.634 484.486 o
-5 -5 6 3.560 4.558 6.172 373.342 o
-5 -5 7 3.900 1.839 6.856 310.335 o
-5 -5 8 55.943 49.480 5.839 169.961 o
-5 -5 9 0.356 -0.910 8.108 233.323 o
-5 -5 10 17.769 7.678 8.803 171.366 o
-5 -5 11 4.485 3.541 9.644 159.664 o
-5 -5 12 6.080 3.687 10.817 126.836 o
-5 -5 13 0.024 1.262 12.069 105.352 o
-5 -4 1 1207.910 1295.890 18.123 1.723 o
-5 -4 2 581.434 549.542 11.835 6.959 o
-5 -4 3 828.058 857.288 14.681 3.520 o
-5 -4 4 461.310 421.778 10.896 10.465 o
-5 -4 5 1442.310 1470.660 20.666 1.274 o
-5 -4 6 1177.190 1246.490 19.776 1.807 o
-5 -4 7 1424.410 1462.180 22.926 1.288 o
-5 -4 8 792.916 827.144 18.270 3.673 o
-5 -4 9 268.034 264.623 11.424 22.163 o
-5 -4 10 101.452 102.843 7.678 80.835 o
-5 -4 11 27.894 19.053 10.309 119.386 o
-5 -4 12 7.873 7.159 10.807 125.005 o
-5 -4 13 36.379 36.051 13.067 74.812 o
-5 -3 1 2300.660 2311.470 23.297 0.534 o
-5 -3 2 2482.020 2700.700 25.009 0.437 o
-5 -3 3 2724.450 2765.700 25.263 0.383 o
-5 -3 4 1009.870 1018.910 15.952 2.497 o
-5 -3 5 685.748 627.747 13.282 5.284 o
-5 -3 6 983.961 968.023 17.253 2.635 o
-5 -3 7 916.773 978.753 18.534 2.819 o
-5 -3 8 93.514 89.414 6.641 97.130 o
-5 -3 9 228.940 262.804 11.199 25.608 o
-5 -3 10 13.423 15.023 8.842 170.839 o
-5 -3 11 54.654 56.747 6.563 151.472 o
-5 -3 12 43.948 43.651 6.396 181.548 o
-5 -3 13 23.331 14.045 12.490 88.490 o
-5 -2 1 159.533 136.879 5.927 57.196 o
-5 -2 2 37.383 32.159 3.638 324.580 o
-5 -2 3 0.632 1.888 4.118 865.120 o
-5 -2 4 745.979 828.503 14.055 4.064 o
-5 -2 5 38.371 29.674 3.423 336.741 o
-5 -2 6 106.341 110.579 6.308 84.611 o
-5 -2 7 1.291 2.875 5.995 411.485 o
-5 -2 8 18.874 12.940 6.788 253.479 o
-5 -2 9 2.740 4.597 7.433 265.526 o
-5 -2 10 0.306 -1.790 8.343 220.495 o
-5 -2 11 0.885 2.660 9.419 171.151 o
-5 -2 12 6.495 4.939 10.827 126.013 o
-5 -2 13 4.840 3.589 11.922 105.577 o
-5 -1 1 535.556 505.011 10.260 8.131 o
-5 -1 2 542.679 383.154 8.910 9.287 o
-5 -1 3 977.226 823.280 13.311 2.972 o
-5 -1 4 3320.530 3363.450 27.474 0.262 o
-5 -1 5 1805.340 1830.520 21.791 0.841 o
-5 -1 6 1858.560 1947.100 24.481 0.775 o
-5 -1 7 1127.560 1206.340 20.246 1.935 o
-5 -1 8 167.229 191.191 9.116 41.245 o
-5 -1 9 405.108 461.086 14.661 10.673 o
-5 -1 10 47.644 44.785 5.771 190.815 o
-5 -1 11 125.706 133.466 9.252 57.435 o
-5 -1 12 112.616 106.618 9.556 64.451 o
-5 -1 13 24.588 18.925 12.607 85.825 o
-5 0 1 4438.280 4167.190 28.100 0.156 o
-5 0 2 471.452 396.651 8.939 10.812 o
-5 0 3 2818.830 2628.650 22.984 0.379 o
-5 0 4 1536.330 1472.330 18.495 1.186 o
-5 0 5 2543.460 2633.360 25.703 0.431 o
-5 0 6 1495.380 1570.970 21.322 1.168 o
-5 0 7 520.970 558.520 13.908 7.581 o
-5 0 8 410.546 461.937 13.429 10.785 o
-5 0 9 107.783 117.250 8.020 72.461 o
-5 0 10 96.007 85.668 7.384 90.752 o
-5 0 11 93.790 103.733 8.470 79.064 o
-5 0 12 48.624 33.635 5.966 194.371 o
-5 0 13 5.221 4.245 12.402 97.514 o
-5 1 1 111.105 136.439 5.399 79.401 o
-5 1 2 1594.410 1653.070 17.683 1.056 o
-5 1 3 241.478 266.677 7.551 27.302 o
-5 1 4 301.487 291.227 8.255 20.680 o
-5 1 5 22.444 18.720 3.433 503.076 o
-5 1 6 131.259 144.449 6.895 62.735 o
-5 1 7 59.117 56.375 5.448 167.198 o
-5 1 8 11.505 7.864 6.993 267.683 o
-5 1 9 37.717 25.596 4.411 299.279 o
-5 1 10 11.929 4.460 8.656 185.921 o
-5 1 11 5.674 6.240 9.781 153.199 o
-5 1 12 22.944 20.148 11.551 100.525 o
-5 1 13 7.091 8.979 12.490 94.766 o
-5 2 1 1099.060 906.582 12.813 2.437 o
-5 2 2 3923.780 3836.680 26.584 0.194 o
-5 2 3 3160.830 3047.390 24.569 0.298 o
-5 2 4 2682.390 2739.740 25.009 0.393 o
-5 2 5 2203.000 2341.060 24.725 0.558 o
-5 2 6 1124.600 1224.800 19.258 1.932 o
-5 2 7 186.925 200.942 8.861 37.415 o
-5 2 8 252.568 265.748 10.641 23.920 o
-5 2 9 143.281 156.939 8.939 50.552 o
-5 2 10 273.999 323.688 13.546 18.504 o
-5 2 11 147.755 169.096 10.700 43.334 o
-5 2 12 62.807 59.916 7.971 117.528 o
-5 3 1 1376.050 1251.710 15.346 1.514 o
-5 3 2 2710.010 2736.190 22.857 0.389 o
-5 3 3 3102.910 3132.830 25.566 0.299 o
-5 3 4 2478.440 2553.650 24.540 0.455 o
-5 3 5 1206.940 1271.900 18.446 1.743 o
-5 3 6 546.967 558.158 13.194 7.269 o
-5 3 7 366.761 403.351 12.402 13.195 o
-5 3 8 334.486 378.919 12.744 14.742 o
-5 3 9 274.310 308.137 12.284 19.708 o
-5 3 10 169.935 173.449 10.250 39.994 o
-5 3 11 42.192 29.811 6.123 206.688 o
-5 3 12 6.531 6.788 11.482 112.092 o
-5 4 1 45.187 55.818 4.030 232.660 o
-5 4 2 1154.620 1192.220 15.717 1.935 o
-5 4 3 51.015 49.089 4.137 222.651 o
-5 4 4 24.898 22.290 3.492 454.746 o
-5 4 5 48.127 43.064 4.362 232.961 o
-5 4 6 1.647 2.778 5.751 443.624 o
-5 4 7 183.285 174.417 8.861 40.328 o
-5 4 8 35.465 22.544 7.873 168.756 o
-5 4 9 132.185 122.384 8.450 60.344 o
-5 4 10 16.424 8.216 9.575 148.905 o
-5 4 11 66.409 59.349 7.463 121.938 o
-5 4 12 0.629 2.044 11.746 110.787 o
-5 5 1 2937.890 2816.650 24.148 0.344 o
-5 5 2 1611.510 1450.830 17.654 1.128 o
-5 5 3 1912.420 1810.560 20.764 0.789 o
-5 5 4 1845.970 1921.990 22.339 0.792 o
-5 5 5 773.087 823.359 15.708 3.871 o
-5 5 6 786.691 782.711 16.314 3.889 o
-5 5 7 408.200 428.986 13.204 11.329 o
-5 5 8 530.567 539.702 15.717 7.383 o
-5 5 9 240.128 253.415 11.874 24.412 o
-5 5 10 149.443 167.463 10.543 43.576 o
-5 5 11 52.743 57.735 7.736 131.384 o
-5 5 12 5.566 3.228 12.226 100.329 o
-5 6 1 4104.740 3828.040 29.117 0.183 o
-5 6 2 932.900 921.879 14.651 2.932 o
-5 6 3 3056.330 3125.790 28.276 0.305 o
-5 6 4 886.336 965.735 16.549 2.992 o
-5 6 5 53.359 63.486 5.193 176.188 o
-5 6 6 365.041 366.860 11.659 14.138 o
-5 6 7 76.416 87.057 6.387 113.869 o
-5 6 8 273.242 286.933 12.011 20.621 o
-5 6 9 83.744 75.105 7.150 104.754 o
-5 6 10 43.933 31.396 11.013 96.022 o
-5 6 11 8.559 2.973 11.218 117.152 o
-5 7 1 280.558 255.381 8.206 23.696 o
-5 7 2 0.405 2.347 4.734 662.012 o
-5 7 3 178.723 145.877 7.013 47.995 o
-5 7 4 172.649 160.421 7.453 46.779 o
-5 7 5 142.390 124.507 7.022 61.871 o
-5 7 6 52.762 52.082 5.330 184.925 o
-5 7 7 117.540 106.511 7.345 74.140 o
-5 7 8 10.593 8.685 8.490 191.469 o
-5 7 9 64.815 59.867 6.983 130.396 o
-5 7 10 5.110 5.418 10.455 135.502 o
-5 7 11 5.136 3.032 11.590 111.557 o
-5 8 1 2429.750 2402.890 25.517 0.484 o
-5 8 2 610.331 606.680 13.174 6.155 o
-5 8 3 1003.570 1050.360 17.840 2.444 o
-5 8 4 439.237 467.218 12.725 10.151 o
-5 8 5 476.059 501.734 13.722 8.852 o
-5 8 6 650.956 646.800 16.490 5.335 o
-5 8 7 596.998 608.812 17.224 5.993 o
-5 8 8 264.523 290.650 12.715 20.586 o
-5 8 9 199.839 227.046 11.815 29.565 o
-5 8 10 38.401 26.349 11.932 87.842 o
-5 8 11 15.428 8.988 12.529 91.441 o
-5 9 1 418.805 403.566 11.013 11.853 o
-5 9 2 440.661 478.231 12.363 10.049 o
-5 9 3 129.662 146.748 7.590 60.413 o
-5 9 4 241.910 222.127 9.292 28.166 o
-5 9 5 197.047 205.999 9.507 34.487 o
-5 9 6 303.423 272.409 11.521 19.475 o
-5 9 7 92.982 81.961 7.179 95.531 o
-5 9 8 70.409 51.544 6.553 135.536 o
-5 9 9 17.260 12.040 10.749 119.379 o
-5 9 10 5.615 3.912 11.277 117.209 o
-5 10 1 29.486 92.544 6.005 174.395 o
-5 10 2 16.450 11.062 6.328 292.701 o
-5 10 3 109.535 102.031 6.690 82.957 o
-5 10 4 153.885 148.714 8.118 51.254 o
-5 10 5 240.514 221.481 10.211 27.445 o
-5 10 6 124.249 103.889 7.805 69.477 o
-5 10 7 96.931 79.898 7.472 91.243 o
-5 10 8 15.129 9.438 10.054 136.984 o
-5 10 9 11.818 8.842 10.896 120.412 o
-5 10 10 0.012 1.164 11.854 109.227 o
-5 11 1 328.338 380.377 11.883 15.277 o
-5 11 2 504.878 576.389 14.759 7.598 o
-5 11 3 923.893 1007.220 20.353 2.711 o
-5 11 4 435.447 438.297 13.986 10.352 o
-5 11 5 780.186 768.900 19.277 3.861 o
-5 11 6 235.250 248.270 11.883 25.033 o
-5 11 7 154.720 165.243 10.348 43.279 o
-5 11 8 70.250 77.922 7.414 111.285 o
-5 11 9 24.732 14.211 12.128 92.720 o
-5 12 1 236.374 265.660 10.485 25.461 o
-5 12 2 133.749 131.842 7.864 60.538 o
-5 12 3 106.201 105.210 7.609 78.309 o
-5 12 4 86.785 84.338 7.062 100.000 o
-5 12 5 143.394 131.011 8.998 53.712 o
-5 12 6 30.612 26.046 10.035 120.528 o
-5 12 7 38.992 32.383 11.062 97.462 o
-5 12 8 30.979 13.791 11.551 98.409 o
-5 12 9 10.724 8.392 12.402 94.916 o
-5 13 1 96.059 83.389 6.749 96.573 o
-5 13 2 82.281 59.241 6.387 121.340 o
-5 13 3 320.830 318.153 12.597 16.741 o
-5 13 4 96.350 82.059 7.658 89.451 o
-5 13 5 138.665 140.410 9.487 52.076 o
-5 13 6 36.260 25.557 10.768 104.780 o
-5 13 7 0.458 -1.819 10.954 127.936 o
-5 13 8 8.422 5.663 12.030 101.964 o
-5 14 1 367.808 424.614 14.397 12.257 o
-5 14 2 514.347 596.087 17.449 7.024 o
-5 14 3 572.382 626.368 18.241 6.076 o
-5 14 4 225.918 210.106 11.414 28.210 o
-5 14 5 134.729 139.706 9.741 52.301 o
-5 14 6 49.177 39.406 6.123 183.464 o
-5 14 7 35.208 27.395 12.363 83.789 o
-5 15 1 111.381 113.826 8.714 67.977 o
-5 15 2 32.989 29.283 5.653 249.022 o
-5 15 3 47.110 38.320 5.516 206.070 o
-5 15 4 13.510 10.876 10.426 128.874 o
-5 15 5 26.351 23.767 11.345 101.296 o
-5 15 6 20.570 13.077 11.707 100.671 o
-5 15 7 20.868 12.578 12.754 86.210 o
-5 16 1 157.693 155.932 10.240 43.878 o
-5 16 2 137.083 135.608 9.966 51.449 o
-5 16 3 78.141 82.441 8.323 94.392 o
-5 16 4 40.206 35.846 12.079 83.764 o
-5 16 5 3.968 3.296 11.610 111.649 o
-5 16 6 0.320 4.157 12.148 103.360 o
-5 17 1 357.078 425.045 17.204 11.729 o
-5 17 2 144.129 144.577 10.651 46.633 o
-5 17 3 79.254 72.533 7.912 101.004 o
-5 17 4 27.850 25.517 12.372 86.484 o
-5 17 5 9.497 5.321 12.519 94.149 o
-5 18 1 0.780 1.487 11.394 117.755 o
-5 18 2 1.016 0.137 11.649 112.890 o
-5 18 3 4.689 3.443 11.981 104.658 o
-5 19 1 34.056 26.212 13.077 76.731 o
-5 19 2 10.039 8.245 12.666 91.432 o
-4 -17 2 91.364 74.636 8.842 84.595 o
-4 -17 3 74.656 59.945 8.098 106.608 o
-4 -17 4 26.545 20.412 12.979 80.718 o
-4 -17 5 35.883 33.860 13.409 72.059 o
-4 -17 6 27.994 38.545 13.566 72.023 o
-4 -16 1 24.562 20.197 12.500 86.936 o
-4 -16 2 29.879 24.266 12.402 85.659 o
-4 -16 3 12.512 13.086 11.698 104.249 o
-4 -16 4 9.406 3.423 11.737 106.963 o
-4 -16 5 19.906 15.893 11.835 98.435 o
-4 -16 6 11.259 8.108 11.864 103.072 o
-4 -16 7 22.142 15.228 12.509 88.439 o
-4 -16 8 17.156 14.250 12.842 86.004 o
-4 -15 1 77.068 63.838 7.727 107.766 o
-4 -15 2 22.442 6.856 11.023 112.736 o
-4 -15 3 35.314 23.982 11.209 99.109 o
-4 -15 4 3.633 3.658 10.289 141.413 o
-4 -15 5 21.622 13.761 10.915 113.295 o
-4 -15 6 10.523 6.661 10.993 119.717 o
-4 -15 7 7.638 2.220 11.101 120.218 o
-4 -15 8 25.283 12.764 12.069 93.586 o
-4 -15 9 5.975 5.105 12.118 101.568 o
-4 -14 1 139.895 140.801 9.898 50.366 o
-4 -14 2 58.231 45.842 6.700 151.238 o
-4 -14 3 69.817 80.905 7.629 107.925 o
-4 -14 4 84.077 100.975 8.421 84.954 o
-4 -14 5 169.149 191.944 11.150 36.795 o
-4 -14 6 194.155 223.594 12.089 29.997 o
-4 -14 7 167.823 186.486 11.434 36.833 o
-4 -14 8 104.050 106.618 9.702 66.620 o
-4 -14 9 22.026 19.503 11.991 94.627 o
-4 -14 10 6.127 6.641 12.226 99.509 o
-4 -13 1 51.126 38.095 5.448 199.493 o
-4 -13 2 41.871 45.636 5.810 200.583 o
-4 -13 3 104.667 112.633 8.392 72.686 o
-4 -13 4 110.829 92.143 7.668 78.883 o
-4 -13 5 87.189 76.523 7.521 98.147 o
-4 -13 6 90.752 82.802 7.678 92.430 o
-4 -13 7 5.322 6.700 10.182 141.976 o
-4 -13 8 0.227 -5.487 10.935 128.522 o
-4 -13 9 0.256 1.751 10.847 130.092 o
-4 -13 10 0.106 -0.577 11.688 112.559 o
-4 -13 11 5.749 5.418 12.372 97.580 o
-4 -12 1 67.069 52.737 5.898 149.703 o
-4 -12 2 12.338 16.177 8.450 185.411 o
-4 -12 3 33.163 23.649 9.037 140.391 o
-4 -12 4 76.051 74.958 6.661 116.529 o
-4 -12 5 92.804 78.939 7.130 97.084 o
-4 -12 6 126.526 89.629 7.805 71.499 o
-4 -12 7 88.797 64.992 6.670 109.706 o
-4 -12 8 7.467 4.000 9.585 158.585 o
-4 -12 9 0.175 0.127 10.064 151.680 o
-4 -12 10 0.484 2.885 10.817 130.330 o
-4 -12 11 0.019 2.866 11.659 112.542 o
-4 -11 1 219.335 251.322 10.974 27.286 o
-4 -11 2 134.054 169.830 9.037 50.955 o
-4 -11 3 689.544 772.666 18.495 4.436 o
-4 -11 4 684.385 734.639 18.260 4.616 o
-4 -11 5 552.969 561.220 16.285 6.870 o
-4 -11 6 356.396 362.009 13.341 14.014 o
-4 -11 7 73.890 86.177 7.326 106.185 o
-4 -11 8 26.143 29.019 9.741 128.494 o
-4 -11 9 22.616 23.434 10.201 123.512 o
-4 -11 10 65.337 76.699 7.766 111.395 o
-4 -11 11 35.283 28.148 11.962 88.321 o
-4 -11 12 55.282 61.217 7.502 131.116 o
-4 -10 1 23.475 19.287 7.502 202.559 o
-4 -10 2 287.850 264.066 10.847 21.162 o
-4 -10 3 94.845 83.057 6.269 101.543 o
-4 -10 4 73.155 63.104 6.191 131.346 o
-4 -10 5 28.865 18.955 7.991 176.683 o
-4 -10 6 0.058 5.379 7.678 254.697 o
-4 -10 7 15.613 17.429 8.421 181.212 o
-4 -10 8 0.607 -2.269 8.675 203.526 o
-4 -10 9 28.880 23.953 9.634 130.612 o
-4 -10 10 14.742 7.423 10.191 134.671 o
-4 -10 11 15.916 15.766 11.160 111.323 o
-4 -10 12 5.090 2.338 12.030 103.887 o
-4 -9 1 15.162 16.021 7.110 241.075 o
-4 -9 2 40.237 45.206 5.047 229.858 o
-4 -9 3 219.667 193.088 8.910 33.042 o
-4 -9 4 160.424 123.460 7.600 54.406 o
-4 -9 5 201.315 183.934 9.184 35.974 o
-4 -9 6 118.905 104.662 7.179 74.807 o
-4 -9 7 9.575 5.692 7.658 235.012 o
-4 -9 8 46.210 46.917 5.536 198.086 o
-4 -9 9 0.384 -2.416 8.871 194.972 o
-4 -9 10 51.498 31.171 5.565 202.795 o
-4 -9 11 13.778 6.162 10.798 122.087 o
-4 -9 12 27.196 14.827 12.157 91.309 o
-4 -8 1 304.572 324.578 10.935 18.192 o
-4 -8 2 2558.600 2677.220 29.713 0.421 o
-4 -8 3 1770.560 1616.460 23.033 0.926 o
-4 -8 4 2049.620 2026.250 26.427 0.666 o
-4 -8 5 1015.760 1067.680 19.708 2.360 o
-4 -8 6 87.567 104.897 7.081 92.414 o
-4 -8 7 103.217 110.237 7.355 80.096 o
-4 -8 8 142.923 150.650 8.607 52.461 o
-4 -8 9 188.869 221.745 10.768 32.655 o
-4 -8 10 218.090 233.560 11.795 27.375 o
-4 -8 11 140.201 157.418 10.720 45.914 o
-4 -8 12 22.146 21.811 11.766 97.320 o
-4 -8 13 7.934 8.988 12.500 94.341 o
-4 -7 1 740.369 748.938 15.101 4.318 o
-4 -7 2 369.888 356.121 10.759 14.426 o
-4 -7 3 19.851 6.220 6.162 301.120 o
-4 -7 4 49.464 32.648 4.235 249.066 o
-4 -7 5 94.787 64.043 5.614 115.534 o
-4 -7 6 47.985 23.698 3.981 280.110 o
-4 -7 7 39.284 25.625 3.990 313.620 o
-4 -7 8 131.159 113.856 7.639 65.561 o
-4 -7 9 41.153 38.702 5.184 231.427 o
-4 -7 10 30.626 18.231 9.575 132.761 o
-4 -7 11 6.728 5.154 9.966 147.392 o
-4 -7 12 4.012 -1.624 10.964 125.741 o
-4 -7 13 0.419 -1.144 12.412 99.713 o
-4 -6 1 306.321 313.389 9.585 19.039 o
-4 -6 2 2584.190 2432.340 25.566 0.444 o
-4 -6 3 1193.520 1152.930 17.664 1.881 o
-4 -6 4 376.609 373.794 10.426 13.912 o
-4 -6 5 112.063 109.406 6.475 80.816 o
-4 -6 6 15.749 27.141 3.893 476.016 o
-4 -6 7 9.423 9.468 6.494 307.726 o
-4 -6 8 223.516 209.637 9.869 30.330 o
-4 -6 9 102.247 76.455 6.817 94.195 o
-4 -6 10 134.059 116.946 8.675 59.713 o
-4 -6 11 35.005 21.038 10.367 113.301 o
-4 -6 12 12.184 9.546 11.033 117.264 o
-4 -6 13 1.178 3.531 11.805 109.162 o
-4 -5 1 4036.730 3990.720 30.985 0.182 o
-4 -5 2 3839.890 3574.170 29.166 0.208 o
-4 -5 3 1044.560 1067.940 16.011 2.331 o
-4 -5 4 545.024 504.169 11.424 7.874 o
-4 -5 5 114.810 123.421 6.396 76.215 o
-4 -5 6 681.103 698.422 14.788 4.950 o
-4 -5 7 641.848 695.155 15.590 5.254 o
-4 -5 8 934.482 939.650 19.287 2.810 o
-4 -5 9 471.775 515.055 15.483 8.555 o
-4 -5 10 180.069 198.223 10.690 35.583 o
-4 -5 11 25.369 23.620 10.113 123.370 o
-4 -5 12 10.700 8.597 10.602 127.433 o
-4 -5 13 10.566 6.621 12.050 100.642 o
-4 -4 1 110.405 91.253 5.262 94.465 o
-4 -4 2 4.205 -2.572 4.489 687.297 o
-4 -4 3 164.026 184.970 6.680 47.487 o
-4 -4 4 3.375 8.617 4.499 631.183 o
-4 -4 5 3.438 -4.822 4.832 611.389 o
-4 -4 6 305.381 294.708 9.468 19.734 o
-4 -4 7 210.451 217.080 9.106 32.423 o
-4 -4 8 3.567 -0.039 6.895 311.197 o
-4 -4 9 53.493 46.908 5.506 184.257 o
-4 -4 10 18.233 9.184 8.480 181.100 o
-4 -4 11 1.261 -0.147 9.204 180.195 o
-4 -4 12 7.221 4.773 10.504 133.128 o
-4 -4 13 1.597 1.760 11.932 107.057 o
-4 -3 1 3741.430 3754.010 26.887 0.209 o
-4 -3 2 3533.790 3602.850 26.202 0.231 o
-4 -3 3 1160.210 1101.930 14.867 2.024 o
-4 -3 4 927.506 1032.090 15.043 2.749 o
-4 -3 5 518.153 558.012 11.795 7.839 o
-4 -3 6 344.281 341.880 10.045 16.068 o
-4 -3 7 1341.240 1311.710 20.598 1.493 o
-4 -3 8 297.775 290.395 10.651 19.750 o
-4 -3 9 191.286 201.187 9.849 35.144 o
-4 -3 10 54.038 44.316 5.604 183.289 o
-4 -3 11 3.208 3.922 9.204 175.890 o
-4 -3 12 13.930 7.443 10.671 124.314 o
-4 -3 13 14.949 11.150 12.187 96.063 o
-4 -2 1 2780.790 2715.610 21.615 0.379 o
-4 -2 2 1310.420 1198.770 14.573 1.656 o
-4 -2 3 89.966 109.650 4.939 105.213 o
-4 -2 4 1019.810 995.585 14.377 2.521 o
-4 -2 5 409.641 372.337 9.517 12.955 o
-4 -2 6 1796.350 1763.580 22.261 0.865 o
-4 -2 7 1652.510 1686.290 23.297 0.983 o
-4 -2 8 245.677 267.108 10.230 24.781 o
-4 -2 9 201.478 205.588 10.103 33.038 o
-4 -2 10 58.558 62.752 6.152 149.969 o
-4 -2 11 35.612 24.892 9.918 119.723 o
-4 -2 12 103.783 114.638 9.213 67.992 o
-4 -2 13 34.311 23.444 12.705 80.931 o
-4 -1 1 912.664 996.475 12.871 2.896 o
-4 -1 2 549.123 576.673 9.732 7.378 o
-4 -1 3 106.506 93.170 4.616 100.593 o
-4 -1 4 431.188 374.264 8.881 12.326 o
-4 -1 5 435.826 423.607 10.201 11.223 o
-4 -1 6 322.551 289.593 9.370 18.873 o
-4 -1 7 0.048 -0.039 5.917 439.005 o
-4 -1 8 22.684 15.766 6.700 244.697 o
-4 -1 9 8.216 5.145 7.081 274.613 o
-4 -1 10 4.095 2.122 8.137 223.060 o
-4 -1 11 5.985 5.702 9.477 162.618 o
-4 -1 12 3.081 1.653 10.710 131.736 o
-4 -1 13 0.167 -2.709 12.177 103.681 o
-4 0 1 2772.990 2669.300 19.952 0.385 o
-4 0 2 244.913 242.656 6.504 29.015 o
-4 0 3 1024.910 1052.410 13.429 2.434 o
-4 0 4 1343.300 1403.820 16.754 1.449 o
-4 0 5 3457.230 3660.460 29.127 0.235 o
-4 0 6 1450.060 1415.330 19.678 1.300 o
-4 0 7 1046.410 1118.580 18.847 2.228 o
-4 0 8 133.286 150.494 7.903 57.538 o
-4 0 9 163.746 178.564 9.223 42.893 o
-4 0 10 64.043 75.369 6.573 129.190 o
-4 0 11 57.893 37.958 5.917 174.578 o
-4 0 12 59.472 50.086 7.277 136.417 o
-4 0 13 38.061 30.310 13.184 74.028 o
-4 1 1 163.848 103.156 4.568 65.231 o
-4 1 2 1600.560 1462.330 14.974 1.140 o
-4 1 3 2900.320 2799.600 21.772 0.352 o
-4 1 4 2560.940 2306.240 21.429 0.467 o
-4 1 5 4919.760 4922.980 33.792 0.122 o
-4 1 6 949.651 913.281 15.845 2.867 o
-4 1 7 424.972 480.950 12.901 10.295 o
-4 1 8 135.570 159.961 8.089 54.827 o
-4 1 9 110.117 123.040 7.864 71.070 o
-4 1 10 171.673 191.729 10.328 38.026 o
-4 1 11 171.211 204.033 11.473 35.020 o
-4 1 12 67.365 67.378 8.049 109.866 o
-4 1 13 36.120 25.752 13.429 72.851 o
-4 2 1 192.831 177.576 5.634 43.446 o
-4 2 2 223.223 213.285 6.240 34.051 o
-4 2 3 53.018 23.356 2.954 297.730 o
-4 2 4 19.915 2.220 4.225 516.662 o
-4 2 5 89.395 88.387 5.252 112.567 o
-4 2 6 54.849 42.594 4.538 210.519 o
-4 2 7 84.651 81.590 5.731 115.655 o
-4 2 8 16.727 13.067 6.983 247.821 o
-4 2 9 9.255 4.685 7.766 230.826 o
-4 2 10 26.531 18.309 9.751 132.062 o
-4 2 11 5.251 5.624 10.191 142.160 o
-4 2 12 2.882 5.409 11.355 116.605 o
-4 3 1 66.925 78.685 4.088 158.517 o
-4 3 2 3532.490 3658.350 24.227 0.229 o
-4 3 3 5184.340 5236.150 30.779 0.110 o
-4 3 4 3851.830 3898.080 28.726 0.196 o
-4 3 5 2356.220 2460.300 24.618 0.497 o
-4 3 6 116.630 113.015 6.220 78.794 o
-4 3 7 82.312 86.666 5.966 113.136 o
-4 3 8 138.191 171.405 8.666 50.818 o
-4 3 9 255.681 269.670 12.020 22.433 o
-4 3 10 211.715 250.940 12.578 26.266 o
-4 3 11 179.857 203.035 12.216 32.651 o
-4 3 12 58.361 47.749 7.365 137.319 o
-4 4 1 8520.050 8023.210 35.885 0.043 o
-4 4 2 4213.330 3810.720 25.762 0.177 o
-4 4 3 6681.180 6388.990 35.376 0.069 o
-4 4 4 1185.460 999.605 15.189 2.078 o
-4 4 5 803.524 829.276 14.915 3.711 o
-4 4 6 131.599 137.339 6.993 63.562 o
-4 4 7 827.331 963.319 18.691 3.186 o
-4 4 8 637.171 699.390 17.400 5.171 o
-4 4 9 603.100 676.777 18.417 5.506 o
-4 4 10 165.979 162.876 10.563 40.911 o
-4 4 11 99.507 101.894 9.761 68.752 o
-4 4 12 9.968 4.607 12.030 101.571 o
-4 5 1 329.961 262.442 7.247 20.137 o
-4 5 2 2397.300 2683.660 22.681 0.460 o
-4 5 3 11.825 3.658 4.382 575.735 o
-4 5 4 162.977 147.980 6.406 53.263 o
-4 5 5 27.766 13.331 5.409 308.896 o
-4 5 6 116.995 110.804 6.768 76.382 o
-4 5 7 1.325 -0.929 6.788 328.915 o
-4 5 8 33.148 28.364 4.528 307.038 o
-4 5 9 14.448 7.688 8.969 169.596 o
-4 5 10 4.031 1.878 10.035 148.852 o
-4 5 11 0.763 -1.262 11.287 120.371 o
-4 5 12 0.751 -0.088 11.844 109.343 o
-4 6 1 8430.580 8149.980 39.993 0.043 o
-4 6 2 3104.280 3036.370 25.410 0.305 o
-4 6 3 3106.930 2926.920 26.535 0.312 o
-4 6 4 596.097 598.709 12.734 6.395 o
-4 6 5 93.389 88.583 5.653 105.639 o
-4 6 6 456.251 456.587 12.930 9.848 o
-4 6 7 440.239 456.137 13.771 10.072 o
-4 6 8 617.321 655.866 18.026 5.499 o
-4 6 9 264.865 280.087 13.165 20.582 o
-4 6 10 164.182 172.168 11.394 38.565 o
-4 6 11 2.471 2.817 10.964 125.814 o
-4 7 1 5665.970 5431.160 34.936 0.095 o
-4 7 2 1483.010 1413.620 18.515 1.270 o
-4 7 3 759.976 836.426 14.876 3.933 o
-4 7 4 150.675 169.145 7.482 51.096 o
-4 7 5 433.220 462.543 12.646 10.363 o
-4 7 6 1185.680 1244.610 21.801 1.776 o
-4 7 7 960.606 1022.780 20.921 2.561 o
-4 7 8 385.510 386.069 14.573 12.254 o
-4 7 9 172.269 178.740 10.720 38.191 o
-4 7 10 49.124 34.614 5.947 192.978 o
-4 7 11 2.546 2.220 11.678 111.217 o
-4 8 1 478.121 449.809 10.866 9.740 o
-4 8 2 305.275 266.198 8.773 21.043 o
-4 8 3 21.586 12.040 5.575 326.353 o
-4 8 4 2.052 1.262 5.683 456.408 o
-4 8 5 446.293 410.628 12.343 10.739 o
-4 8 6 76.944 73.002 6.504 118.455 o
-4 8 7 0.484 5.634 8.333 216.099 o
-4 8 8 18.598 10.485 9.360 151.887 o
-4 8 9 4.223 -1.575 10.309 141.763 o
-4 8 10 0.094 2.279 10.700 133.603 o
-4 8 11 0.820 -0.049 12.196 103.112 o
-4 9 1 2712.040 2565.390 26.936 0.403 o
-4 9 2 410.316 442.845 11.531 11.426 o
-4 9 3 30.233 29.850 3.990 350.062 o
-4 9 4 239.896 241.101 9.653 27.049 o
-4 9 5 542.291 536.514 14.915 7.324 o
-4 9 6 1100.450 1127.980 22.515 2.047 o
-4 9 7 779.713 820.385 20.696 3.675 o
-4 9 8 262.723 300.567 13.272 20.000 o
-4 9 9 31.638 18.417 10.817 108.351 o
-4 9 10 1.016 -1.154 11.297 120.039 o
-4 10 1 42.386 46.957 4.900 226.551 o
-4 10 2 8.077 13.487 6.250 325.493 o
-4 10 3 541.918 616.949 14.925 6.782 o
-4 10 4 1184.750 1215.700 21.850 1.803 o
-4 10 5 1216.930 1260.360 23.434 1.696 o
-4 10 6 760.315 767.052 19.561 3.967 o
-4 10 7 54.953 43.436 6.103 170.589 o
-4 10 8 89.830 88.700 7.776 90.387 o
-4 10 9 1.544 -0.782 10.935 127.785 o
-4 10 10 6.306 2.445 12.089 102.424 o
-4 11 1 88.269 79.526 5.986 110.840 o
-4 11 2 273.098 251.527 10.113 23.221 o
-4 11 3 360.006 348.580 12.138 14.539 o
-4 11 4 73.590 61.070 6.328 130.078 o
-4 11 5 0.521 4.382 8.548 206.474 o
-4 11 6 84.507 57.031 6.729 116.179 o
-4 11 7 22.550 13.703 9.908 133.321 o
-4 11 8 2.928 -0.949 10.436 139.268 o
-4 11 9 0.378 -3.433 11.678 112.630 o
-4 12 1 127.984 155.951 8.196 57.319 o
-4 12 2 235.428 243.312 10.328 26.748 o
-4 12 3 516.378 508.972 15.385 7.869 o
-4 12 4 760.205 801.489 19.493 3.873 o
-4 12 5 692.775 723.254 19.649 4.526 o
-4 12 6 357.816 431.646 15.903 12.011 o
-4 12 7 9.987 8.206 10.221 137.054 o
-4 12 8 3.950 4.039 11.277 118.001 o
-4 12 9 1.400 2.748 12.402 99.071 o
-4 13 1 96.879 117.250 7.453 80.937 o
-4 13 2 512.558 595.667 16.412 7.166 o
-4 13 3 601.631 668.923 18.309 5.564 o
-4 13 4 535.651 562.579 17.634 6.944 o
-4 13 5 132.126 130.737 9.399 55.421 o
-4 13 6 30.251 17.791 10.896 107.961 o
-4 13 7 2.163 6.211 10.710 130.911 o
-4 13 8 10.906 4.225 11.952 102.550 o
-4 14 1 132.443 137.505 8.597 57.329 o
-4 14 2 95.103 82.519 7.355 92.518 o
-4 14 3 6.464 2.895 9.174 173.965 o
-4 14 4 21.155 17.898 9.957 131.689 o
-4 14 5 67.166 48.795 6.661 139.093 o
-4 14 6 0.649 4.401 10.573 135.784 o
-4 14 7 1.136 2.132 11.531 114.684 o
-4 15 1 163.943 170.603 9.888 42.126 o
-4 15 2 373.115 435.275 15.610 11.613 o
-4 15 3 346.890 365.657 15.140 13.652 o
-4 15 4 245.552 279.069 13.615 21.532 o
-4 15 5 29.830 24.314 11.531 96.911 o
-4 15 6 0.682 -0.186 11.668 112.688 o
-4 16 1 277.839 341.929 14.593 17.227 o
-4 16 2 228.713 256.535 13.037 24.104 o
-4 16 3 105.076 105.855 9.389 68.151 o
-4 16 4 30.047 26.564 11.766 93.143 o
-4 16 5 3.326 3.061 11.580 112.542 o
-4 16 6 3.275 1.829 12.460 97.676 o
-4 17 1 25.951 26.642 11.306 101.408 o
-4 17 2 12.208 8.744 11.062 116.886 o
-4 17 3 46.185 32.481 12.187 81.116 o
-4 17 4 3.628 1.164 11.746 109.709 o
-4 18 1 141.596 162.915 11.394 43.188 o
-4 18 2 66.737 60.014 7.423 121.896 o
-4 18 3 32.873 25.478 13.077 77.165 o
-4 19 1 11.958 9.399 12.460 93.483 o
-4 19 2 21.033 18.769 12.832 84.267 o
-3 -17 1 0.423 -1.262 12.607 96.646 o
-3 -17 2 0.886 -0.714 12.431 99.243 o
-3 -17 3 9.453 -0.245 12.099 101.538 o
-3 -17 4 13.916 7.502 12.050 99.190 o
-3 -17 5 0.353 -2.181 11.932 107.897 o
-3 -17 6 0.024 1.487 11.786 110.424 o
-3 -17 7 1.683 3.365 12.138 103.167 o
-3 -16 1 164.281 179.562 11.668 37.390 o
-3 -16 2 134.853 139.393 10.778 48.780 o
-3 -16 3 79.955 87.233 8.754 88.015 o
-3 -16 4 14.025 12.529 11.091 114.380 o
-3 -16 5 6.918 4.118 10.905 124.274 o
-3 -16 6 16.754 17.409 11.473 105.138 o
-3 -16 7 37.165 24.412 12.196 85.531 o
-3 -16 8 73.523 65.109 8.167 104.760 o
-3 -16 9 29.908 19.884 13.204 77.455 o
-3 -15 1 162.850 193.078 11.698 36.544 o
-3 -15 2 32.540 35.748 5.673 240.177 o
-3 -15 3 0.158 -3.071 10.113 150.280 o
-3 -15 4 1.398 2.905 9.585 164.740 o
-3 -15 5 5.052 0.264 10.094 147.006 o
-3 -15 6 40.907 31.679 11.267 94.015 o
-3 -15 7 90.282 97.933 8.705 80.450 o
-3 -15 8 33.898 32.041 12.656 80.252 o
-3 -15 9 11.994 9.712 12.157 97.854 o
-3 -15 10 3.145 5.829 12.607 94.850 o
-3 -14 1 69.317 53.461 6.807 131.740 o
-3 -14 2 94.633 83.106 7.629 90.394 o
-3 -14 3 11.921 8.773 9.096 167.543 o
-3 -14 4 8.101 5.731 8.861 182.052 o
-3 -14 5 1.606 3.316 9.233 176.873 o
-3 -14 6 7.930 7.746 9.829 149.242 o
-3 -14 7 0.376 -6.798 10.319 144.208 o
-3 -14 8 42.309 13.517 11.414 95.456 o
-3 -14 9 16.065 13.654 11.228 110.550 o
-3 -14 10 11.622 9.585 11.893 102.149 o
-3 -13 1 261.433 306.768 13.086 20.017 o
-3 -13 2 44.854 59.691 6.093 174.076 o
-3 -13 3 11.754 12.372 8.402 190.766 o
-3 -13 4 63.805 50.438 5.673 160.117 o
-3 -13 5 181.865 165.937 10.015 39.085 o
-3 -13 6 422.505 462.983 16.099 9.941 o
-3 -13 7 284.486 320.735 13.810 17.870 o
-3 -13 8 211.164 249.855 12.656 26.276 o
-3 -13 9 25.468 20.539 10.905 109.597 o
-3 -13 10 8.114 8.362 11.277 114.876 o
-3 -13 11 0.808 2.641 11.844 108.782 o
-3 -12 1 10.398 11.062 8.108 206.218 o
-3 -12 2 0.983 1.399 7.453 272.611 o
-3 -12 3 43.568 34.056 4.783 245.946 o
-3 -12 4 240.343 237.864 10.837 26.051 o
-3 -12 5 412.915 488.530 15.228 10.047 o
-3 -12 6 328.108 384.191 14.035 14.411 o
-3 -12 7 51.018 51.935 6.289 165.855 o
-3 -12 8 15.069 14.065 9.693 144.396 o
-3 -12 9 0.050 -1.369 9.976 154.517 o
-3 -12 10 9.430 10.299 10.778 123.824 o
-3 -12 11 5.169 3.756 11.737 108.688 o
-3 -11 1 353.003 379.125 12.676 14.042 o
-3 -11 2 37.307 22.192 7.482 178.115 o
-3 -11 3 14.036 5.555 7.208 250.792 o
-3 -11 4 9.538 -0.616 7.355 259.570 o
-3 -11 5 32.459 7.277 7.952 181.183 o
-3 -11 6 423.523 376.738 13.351 11.597 o
-3 -11 7 108.978 96.300 7.482 79.924 o
-3 -11 8 87.144 74.205 6.886 105.159 o
-3 -11 9 4.340 -0.988 9.536 164.980 o
-3 -11 10 6.018 3.922 10.035 146.509 o
-3 -11 11 3.913 1.584 11.081 122.768 o
-3 -11 12 4.785 1.712 12.206 101.201 o
-3 -10 1 25.216 33.362 4.558 331.055 o
-3 -10 2 57.747 52.903 5.330 174.921 o
-3 -10 3 826.352 794.604 17.214 3.618 o
-3 -10 4 1175.930 1191.480 21.302 1.846 o
-3 -10 5 887.297 909.017 19.092 3.044 o
-3 -10 6 662.765 720.897 17.370 4.876 o
-3 -10 7 79.511 99.586 7.091 99.485 o
-3 -10 8 45.827 42.145 5.321 210.602 o
-3 -10 9 23.823 17.312 9.311 145.204 o
-3 -10 10 45.141 34.594 5.311 221.854 o
-3 -10 11 50.455 33.577 6.328 180.850 o
-3 -10 12 45.331 25.293 12.813 76.233 o
-3 -9 1 1.114 -5.301 6.269 385.645 o
-3 -9 2 1119.930 1144.380 19.336 2.024 o
-3 -9 3 978.993 940.892 17.615 2.689 o
-3 -9 4 1335.940 1424.280 22.231 1.417 o
-3 -9 5 690.936 720.897 16.206 4.719 o
-3 -9 6 272.097 336.403 11.688 19.340 o
-3 -9 7 72.813 59.309 5.761 140.124 o
-3 -9 8 65.921 69.188 6.132 136.973 o
-3 -9 9 59.629 58.370 6.211 150.410 o
-3 -9 10 37.666 28.364 10.485 107.668 o
-3 -9 11 76.740 77.012 8.098 99.248 o
-3 -9 12 20.221 11.042 11.981 97.102 o
-3 -8 1 4.968 4.646 5.614 434.169 o
-3 -8 2 4.133 -0.626 5.819 426.642 o
-3 -8 3 198.245 142.376 7.619 42.831 o
-3 -8 4 610.391 612.039 14.035 6.068 o
-3 -8 5 863.000 879.617 16.989 3.253 o
-3 -8 6 606.486 641.303 15.248 5.871 o
-3 -8 7 136.076 135.940 7.609 60.004 o
-3 -8 8 57.862 47.641 5.272 180.793 o
-3 -8 9 33.131 17.781 8.685 151.982 o
-3 -8 10 52.430 27.405 5.555 205.187 o
-3 -8 11 10.777 7.981 10.191 137.303 o
-3 -8 12 8.761 2.553 11.365 114.272 o
-3 -8 13 7.958 5.086 12.500 94.983 o
-3 -7 1 1254.820 1308.300 18.877 1.632 o
-3 -7 2 4818.060 4599.290 34.711 0.131 o
-3 -7 3 4452.180 4404.500 34.574 0.150 o
-3 -7 4 2980.400 2911.580 28.863 0.329 o
-3 -7 5 705.415 750.601 15.013 4.556 o
-3 -7 6 64.150 78.832 5.497 142.593 o
-3 -7 7 28.445 25.625 4.030 370.848 o
-3 -7 8 225.911 224.288 10.250 28.792 o
-3 -7 9 339.785 347.573 13.174 15.002 o
-3 -7 10 264.124 272.223 12.715 21.218 o
-3 -7 11 131.482 137.984 9.546 54.065 o
-3 -7 12 11.559 4.333 11.238 114.922 o
-3 -7 13 19.154 10.338 12.666 88.206 o
-3 -6 1 4362.470 4215.030 31.464 0.158 o
-3 -6 2 2817.890 2670.220 25.165 0.375 o
-3 -6 3 865.617 746.219 13.341 3.642 o
-3 -6 4 354.807 419.743 10.358 13.885 o
-3 -6 5 21.726 19.669 3.228 529.559 o
-3 -6 6 206.415 203.270 8.167 35.175 o
-3 -6 7 549.414 596.234 14.661 6.843 o
-3 -6 8 223.986 239.654 10.045 28.392 o
-3 -6 9 305.859 318.280 12.421 17.570 o
-3 -6 10 104.304 100.955 7.932 78.260 o
-3 -6 11 7.803 6.817 9.585 156.988 o
-3 -6 12 3.359 -0.792 10.866 128.349 o
-3 -6 13 3.581 -0.235 12.040 104.748 o
-3 -5 1 1605.160 1626.040 18.564 1.056 o
-3 -5 2 1519.650 1400.870 17.028 1.244 o
-3 -5 3 2449.100 2398.670 22.613 0.482 o
-3 -5 4 67.912 59.378 4.274 170.599 o
-3 -5 5 171.857 184.990 7.120 44.829 o
-3 -5 6 28.778 16.989 3.208 469.472 o
-3 -5 7 13.754 10.406 6.172 315.542 o
-3 -5 8 787.681 737.867 17.057 3.987 o
-3 -5 9 44.990 34.124 5.291 223.514 o
-3 -5 10 67.563 47.005 5.907 152.808 o
-3 -5 11 55.242 41.069 6.044 173.437 o
-3 -5 12 0.890 -0.636 10.397 141.697 o
-3 -5 13 1.497 -3.951 11.962 106.921 o
-3 -4 1 7443.270 7273.200 35.953 0.055 o
-3 -4 2 6447.210 6186.280 33.166 0.074 o
-3 -4 3 507.960 490.643 9.771 8.815 o
-3 -4 4 1262.160 1329.040 16.735 1.618 o
-3 -4 5 453.186 485.537 10.856 9.902 o
-3 -4 6 1284.400 1333.580 19.238 1.566 o
-3 -4 7 2811.960 2747.210 30.261 0.367 o
-3 -4 8 1375.190 1374.490 22.847 1.396 o
-3 -4 9 651.661 703.869 17.321 5.036 o
-3 -4 10 57.036 57.559 5.956 159.479 o
-3 -4 11 48.416 46.722 5.917 183.601 o
-3 -4 12 8.417 8.646 10.729 125.974 o
-3 -4 13 19.206 9.918 12.196 94.590 o
-3 -3 1 2803.920 2589.410 20.070 0.387 o
-3 -3 2 809.207 832.562 11.541 3.752 o
-3 -3 3 267.205 243.272 6.729 26.398 o
-3 -3 4 1016.680 1067.280 14.397 2.426 o
-3 -3 5 1308.540 1224.440 16.578 1.628 o
-3 -3 6 390.826 350.996 10.084 13.893 o
-3 -3 7 1182.290 1228.820 19.816 1.813 o
-3 -3 8 29.407 18.837 6.817 219.697 o
-3 -3 9 92.562 85.600 6.455 100.726 o
-3 -3 10 0.570 -1.017 8.157 230.156 o
-3 -3 11 35.857 26.026 9.849 120.431 o
-3 -3 12 43.914 34.741 11.688 86.995 o
-3 -3 13 21.041 15.639 12.216 92.612 o
-3 -2 1 1722.570 1541.450 14.544 1.006 o
-3 -2 2 1622.400 1581.740 15.072 1.069 o
-3 -2 3 39.490 40.707 3.316 307.219 o
-3 -2 4 281.126 308.773 7.785 21.739 o
-3 -2 5 230.896 235.399 7.443 30.393 o
-3 -2 6 1452.950 1430.120 19.317 1.291 o
-3 -2 7 924.588 945.352 17.136 2.876 o
-3 -2 8 71.475 65.843 5.663 139.148 o
-3 -2 9 80.206 72.924 6.299 117.828 o
-3 -2 10 0.471 1.174 7.961 240.586 o
-3 -2 11 2.998 -1.604 9.360 172.467 o
-3 -2 12 0.322 -0.479 10.573 137.400 o
-3 -2 13 7.140 5.506 11.942 103.949 o
-3 -1 1 1856.050 1914.690 15.355 0.799 o
-3 -1 2 365.534 331.454 6.895 16.200 o
-3 -1 3 235.866 223.809 6.093 31.642 o
-3 -1 4 3306.230 3354.380 24.285 0.264 o
-3 -1 5 5370.620 5379.610 33.743 0.103 o
-3 -1 6 6545.880 6738.780 41.626 0.068 o
-3 -1 7 1797.040 1885.870 24.295 0.825 o
-3 -1 8 141.554 147.755 7.756 55.912 o
-3 -1 9 153.072 160.265 8.724 48.373 o
-3 -1 10 41.640 33.587 4.822 251.248 o
-3 -1 11 81.381 83.419 7.648 98.524 o
-3 -1 12 76.617 75.956 8.734 93.216 o
-3 -1 13 44.105 29.616 13.253 71.886 o
-3 0 1 1.641 2.680 3.521 1101.240 o
-3 0 2 2290.550 2395.540 17.038 0.529 o
-3 0 3 4622.440 4548.590 25.332 0.140 o
-3 0 4 2993.480 2902.490 22.456 0.330 o
-3 0 5 2277.040 2259.450 22.261 0.550 o
-3 0 6 863.131 854.725 14.906 3.355 o
-3 0 7 56.160 44.942 4.401 207.899 o
-3 0 8 1.695 1.956 6.387 364.534 o
-3 0 9 178.071 188.149 9.301 39.213 o
-3 0 10 54.029 52.913 5.487 178.152 o
-3 0 11 130.829 133.681 9.243 55.959 o
-3 0 12 25.298 15.483 11.551 100.516 o
-3 0 13 5.251 -5.868 12.881 91.174 o
-3 1 1 507.793 535.761 8.147 8.529 o
-3 1 2 63.789 97.874 4.509 143.559 o
-3 1 3 422.484 420.291 8.059 12.007 o
-3 1 4 6645.380 6907.810 34.985 0.066 o
-3 1 5 1915.800 1945.000 20.823 0.753 o
-3 1 6 1374.710 1431.730 19.444 1.379 o
-3 1 7 89.136 82.294 5.653 111.977 o
-3 1 8 35.557 44.335 4.724 257.494 o
-3 1 9 20.577 14.035 7.492 213.123 o
-3 1 10 2.614 3.140 8.470 207.991 o
-3 1 11 9.650 1.633 10.074 143.525 o
-3 1 12 28.619 20.647 12.069 90.863 o
-3 1 13 13.692 9.252 12.783 88.563 o
-3 2 1 39.843 40.198 3.678 292.007 o
-3 2 2 8800.040 8509.550 32.481 0.040 o
-3 2 3 7838.870 7810.910 34.320 0.049 o
-3 2 4 10837.300 11157.200 45.529 0.025 o
-3 2 5 5158.900 5309.000 34.829 0.109 o
-3 2 6 57.260 56.287 4.577 188.608 o
-3 2 7 123.167 145.692 7.326 63.877 o
-3 2 8 1.131 0.186 6.573 350.885 o
-3 2 9 196.984 212.796 10.348 32.803 o
-3 2 10 125.032 130.727 9.448 57.252 o
-3 2 11 213.538 238.676 13.321 25.799 o
-3 2 12 79.621 78.078 8.587 92.279 o
-3 3 1 7539.600 7592.230 30.202 0.053 o
-3 3 2 3181.730 3057.340 20.617 0.296 o
-3 3 3 2394.510 2228.440 19.238 0.522 o
-3 3 4 3829.480 3970.380 28.295 0.195 o
-3 3 5 106.583 107.929 5.536 89.791 o
-3 3 6 42.056 40.853 3.932 271.653 o
-3 3 7 89.528 82.186 5.819 110.150 o
-3 3 8 417.773 457.682 13.566 10.629 o
-3 3 9 369.127 409.308 14.211 12.504 o
-3 3 10 127.287 109.318 8.714 63.045 o
-3 3 11 21.198 11.336 10.925 114.000 o
-3 3 12 4.636 -0.156 11.835 107.934 o
-3 4 1 30.696 22.045 3.267 424.491 o
-3 4 2 9184.800 9051.810 37.313 0.036 o
-3 4 3 4708.470 4689.370 29.303 0.134 o
-3 4 4 2067.620 1940.220 20.598 0.685 o
-3 4 5 243.159 224.044 7.854 29.239 o
-3 4 6 4.253 4.440 5.526 452.444 o
-3 4 7 112.485 83.653 6.162 89.935 o
-3 4 8 19.557 16.793 7.824 198.481 o
-3 4 9 67.358 63.809 6.641 130.811 o
-3 4 10 131.002 138.483 9.781 53.277 o
-3 4 11 100.348 90.109 8.626 78.109 o
-3 4 12 5.340 6.719 11.971 103.927 o
-3 5 1 11385.300 10633.100 40.756 0.024 o
-3 5 2 9252.300 8910.200 39.386 0.036 o
-3 5 3 3345.980 3013.700 24.843 0.278 o
-3 5 4 400.859 362.273 9.409 13.469 o
-3 5 5 1.803 -0.460 5.203 548.991 o
-3 5 6 56.203 64.082 5.184 170.825 o
-3 5 7 341.509 363.349 12.040 15.024 o
-3 5 8 423.847 444.596 14.319 10.489 o
-3 5 9 400.339 410.824 14.602 11.465 o
-3 5 10 170.117 182.995 11.120 37.382 o
-3 5 11 37.033 28.696 11.737 90.305 o
-3 5 12 0.053 0.812 12.108 104.747 o
-3 6 1 1362.870 1210.630 15.091 1.564 o
-3 6 2 1737.690 1692.130 18.691 0.933 o
-3 6 3 63.231 62.723 4.450 173.114 o
-3 6 4 76.979 78.088 4.841 135.353 o
-3 6 5 18.668 12.754 5.506 343.788 o
-3 6 6 346.351 359.143 11.336 15.152 o
-3 6 7 335.044 322.524 12.001 16.223 o
-3 6 8 92.499 66.919 6.592 106.702 o
-3 6 9 20.367 10.475 9.360 150.238 o
-3 6 10 6.818 3.374 10.338 138.005 o
-3 6 11 0.393 1.927 11.150 123.029 o
-3 7 1 5424.750 5135.430 32.657 0.105 o
-3 7 2 595.176 493.352 10.729 7.242 o
-3 7 3 590.441 587.725 12.294 6.561 o
-3 7 4 116.555 130.590 6.504 73.172 o
-3 7 5 1.470 1.203 5.859 434.399 o
-3 7 6 10.087 9.184 6.788 283.863 o
-3 7 7 127.285 120.467 7.981 64.306 o
-3 7 8 180.332 197.499 10.358 36.183 o
-3 7 9 168.501 176.549 10.710 38.998 o
-3 7 10 18.531 6.025 10.807 119.204 o
-3 7 11 3.544 2.113 11.756 109.365 o
-3 8 1 3318.270 3339.270 28.266 0.263 o
-3 8 2 665.911 624.901 12.813 5.504 o
-3 8 3 17.368 19.346 3.296 579.249 o
-3 8 4 96.557 97.317 6.084 96.556 o
-3 8 5 142.356 146.562 7.776 55.789 o
-3 8 6 622.298 625.370 16.148 5.729 o
-3 8 7 584.631 643.132 17.390 5.930 o
-3 8 8 304.148 325.243 13.771 16.804 o
-3 8 9 160.600 170.691 10.485 41.354 o
-3 8 10 2.234 3.668 10.964 125.710 o
-3 9 1 54.475 57.187 4.939 185.521 o
-3 9 2 63.267 45.871 4.470 189.198 o
-3 9 3 6.995 4.167 5.810 397.897 o
-3 9 4 33.247 25.596 4.440 317.979 o
-3 9 5 281.570 258.921 10.514 22.011 o
-3 9 6 139.464 141.007 8.538 54.962 o
-3 9 7 1.724 2.357 8.705 198.992 o
-3 9 8 10.776 7.864 9.575 154.105 o
-3 9 9 0.142 1.966 10.348 142.870 o
-3 9 10 5.114 -1.350 11.737 109.506 o
-3 10 1 579.752 606.171 13.673 6.480 o
-3 10 2 8.054 6.054 5.878 378.962 o
-3 10 3 43.238 36.706 4.832 241.098 o
-3 10 4 30.331 20.285 3.824 391.253 o
-3 10 5 173.993 167.620 9.194 42.031 o
-3 10 6 407.070 448.694 15.023 10.698 o
-3 10 7 270.660 280.400 12.979 20.337 o
-3 10 8 42.195 31.983 10.925 97.893 o
-3 10 9 13.307 8.548 11.150 114.662 o
-3 10 10 4.236 -1.399 12.568 96.019 o
-3 11 1 54.329 71.555 5.722 157.575 o
-3 11 2 59.713 69.960 5.683 151.643 o
-3 11 3 621.616 660.708 16.226 5.559 o
-3 11 4 461.878 490.526 14.583 9.108 o
-3 11 5 546.622 574.521 16.705 6.824 o
-3 11 6 406.139 440.811 15.972 10.600 o
-3 11 7 89.614 89.121 8.255 86.486 o
-3 11 8 21.132 11.590 11.062 111.480 o
-3 11 9 3.347 2.621 11.756 109.341 o
-3 12 1 6.526 4.343 6.768 304.590 o
-3 12 2 64.450 51.152 5.614 159.692 o
-3 12 3 5.230 3.032 7.619 249.463 o
-3 12 4 12.538 9.517 8.519 187.053 o
-3 12 5 1.578 -1.027 9.223 179.088 o
-3 12 6 0.600 -2.308 9.947 154.981 o
-3 12 7 10.675 2.113 10.534 131.060 o
-3 12 8 1.759 1.692 11.238 120.493 o
-3 13 1 228.683 252.163 10.798 26.515 o
-3 13 2 194.224 182.868 9.458 36.717 o
-3 13 3 191.749 199.084 10.143 34.763 o
-3 13 4 264.066 281.417 12.578 21.015 o
-3 13 5 188.367 219.124 11.629 31.587 o
-3 13 6 71.799 70.498 7.453 112.572 o
-3 13 7 2.119 -0.949 11.257 120.322 o
-3 13 8 20.433 13.037 12.402 90.784 o
-3 14 1 257.219 320.960 12.627 20.148 o
-3 14 2 190.357 198.693 10.270 34.784 o
-3 14 3 312.109 368.425 14.417 15.199 o
-3 14 4 243.912 265.015 12.950 22.701 o
-3 14 5 131.825 136.556 9.986 52.573 o
-3 14 6 20.522 6.514 11.306 108.739 o
-3 14 7 14.582 9.966 12.148 96.994 o
-3 15 1 15.813 8.803 9.018 165.859 o
-3 15 2 0.899 -0.323 9.380 173.916 o
-3 15 3 0.599 -0.890 9.820 159.008 o
-3 15 4 1.204 2.240 10.348 142.035 o
-3 15 5 4.827 1.878 10.944 125.206 o
-3 15 6 0.316 -2.670 11.883 108.801 o
-3 16 1 194.438 213.168 11.619 31.235 o
-3 16 2 147.425 143.853 10.221 47.295 o
-3 16 3 109.054 97.512 8.930 70.870 o
-3 16 4 78.284 86.793 8.636 90.105 o
-3 16 5 3.350 0.372 11.952 106.294 o
-3 17 1 172.660 195.181 12.245 33.998 o
-3 17 2 114.009 110.237 9.663 62.842 o
-3 17 3 84.679 97.434 9.585 76.635 o
-3 17 4 19.722 18.397 12.460 89.346 o
-3 18 1 10.195 5.888 11.580 108.846 o
-3 18 2 0.001 1.203 11.619 113.671 o
-3 18 3 0.778 2.073 12.265 101.615 o
-3 19 1 38.547 28.246 13.321 72.899 o
-2 -18 1 2.883 0.000 12.392 99.189 o
-2 -18 2 15.781 5.907 12.470 92.645 o
-2 -18 3 32.128 26.633 12.871 79.334 o
-2 -18 4 38.371 37.616 6.621 190.274 o
-2 -18 5 31.150 16.030 12.685 83.283 o
-2 -18 6 15.917 12.676 12.744 87.853 o
-2 -17 1 72.043 68.640 8.284 103.204 o
-2 -17 2 137.857 172.070 11.727 42.129 o
-2 -17 3 139.409 168.304 11.355 43.204 o
-2 -17 4 38.083 33.420 12.167 83.963 o
-2 -17 5 23.089 13.527 11.629 100.705 o
-2 -17 6 3.251 4.626 11.512 113.536 o
-2 -17 7 11.857 7.091 12.089 99.446 o
-2 -17 8 65.310 63.016 8.480 107.523 o
-2 -16 1 16.139 11.659 11.042 114.423 o
-2 -16 2 5.299 6.621 10.651 130.260 o
-2 -16 3 3.672 5.145 10.299 140.601 o
-2 -16 4 5.573 2.289 10.182 143.411 o
-2 -16 5 5.333 -5.497 10.641 132.521 o
-2 -16 6 0.037 -2.181 10.866 130.254 o
-2 -16 7 11.436 4.978 11.355 112.594 o
-2 -16 8 20.911 14.162 12.226 92.792 o
-2 -16 9 0.016 -7.795 12.636 96.326 o
-2 -15 1 217.560 252.769 12.695 25.538 o
-2 -15 2 266.391 307.453 13.566 19.378 o
-2 -15 3 165.630 180.442 10.661 39.254 o
-2 -15 4 45.312 35.875 5.223 222.749 o
-2 -15 5 37.312 19.248 10.152 116.203 o
-2 -15 6 13.154 7.140 9.996 140.815 o
-2 -15 7 11.573 5.409 10.416 132.172 o
-2 -15 8 19.599 12.099 11.355 107.010 o
-2 -15 9 34.938 23.297 12.177 86.746 o
-2 -15 10 17.626 11.551 12.451 91.338 o
-2 -14 1 290.041 311.404 13.155 18.197 o
-2 -14 2 46.049 39.484 5.477 208.358 o
-2 -14 3 32.798 25.703 4.538 314.131 o
-2 -14 4 11.520 6.690 8.695 183.502 o
-2 -14 5 46.276 44.551 6.044 186.179 o
-2 -14 6 227.989 260.261 12.392 24.645 o
-2 -14 7 168.392 230.509 12.216 32.374 o
-2 -14 8 165.035 190.223 11.590 36.652 o
-2 -14 9 68.762 78.753 8.049 104.655 o
-2 -14 10 29.915 32.374 12.255 85.989 o
-2 -14 11 3.472 -0.782 12.744 93.654 o
-2 -13 1 3.431 2.494 8.108 225.466 o
-2 -13 2 8.420 4.548 7.942 223.285 o
-2 -13 3 13.336 6.396 7.971 211.442 o
-2 -13 4 2.634 2.699 7.932 236.558 o
-2 -13 5 41.021 47.954 5.878 197.876 o
-2 -13 6 132.123 158.856 9.145 52.518 o
-2 -13 7 0.553 -1.076 9.487 170.356 o
-2 -13 8 0.068 -2.866 10.035 152.701 o
-2 -13 9 10.985 5.907 10.338 134.273 o
-2 -13 10 0.524 -0.293 11.101 124.548 o
-2 -13 11 1.123 -5.663 12.050 105.516 o
-2 -12 1 623.347 689.463 17.400 5.334 o
-2 -12 2 60.114 54.449 5.448 167.143 o
-2 -12 3 179.170 168.784 8.793 41.753 o
-2 -12 4 192.618 163.522 8.920 39.524 o
-2 -12 5 144.487 181.713 9.536 45.760 o
-2 -12 6 173.779 194.976 9.790 38.447 o
-2 -12 7 272.206 277.524 12.099 20.941 o
-2 -12 8 125.105 136.420 9.321 56.909 o
-2 -12 9 20.635 10.260 9.741 140.126 o
-2 -12 10 15.946 7.335 10.632 123.963 o
-2 -12 11 2.470 -3.472 11.698 111.359 o
-2 -11 1 103.068 100.006 6.993 85.228 o
-2 -11 2 57.220 50.918 5.135 181.956 o
-2 -11 3 304.068 310.406 11.042 18.569 o
-2 -11 4 679.702 778.916 17.458 4.531 o
-2 -11 5 753.850 846.803 18.788 3.810 o
-2 -11 6 385.389 430.072 13.849 11.803 o
-2 -11 7 202.702 196.130 9.996 33.666 o
-2 -11 8 63.987 64.464 6.396 137.957 o
-2 -11 9 15.434 14.632 9.448 150.437 o
-2 -11 10 52.714 52.766 6.387 160.543 o
-2 -11 11 34.654 31.699 5.917 229.770 o
-2 -11 12 48.671 45.548 6.749 163.584 o
-2 -10 1 27.263 16.568 6.680 233.341 o
-2 -10 2 38.907 42.076 4.841 245.741 o
-2 -10 3 20.303 22.319 3.717 475.077 o
-2 -10 4 31.169 39.357 4.783 279.360 o
-2 -10 5 7.780 5.546 6.729 301.506 o
-2 -10 6 49.316 44.130 5.409 197.998 o
-2 -10 7 0.142 -0.734 7.257 291.657 o
-2 -10 8 0.583 -2.934 7.971 240.936 o
-2 -10 9 8.109 8.157 8.734 185.429 o
-2 -10 10 1.844 -0.205 9.517 168.055 o
-2 -10 11 16.714 10.592 10.739 120.311 o
-2 -10 12 2.369 0.284 11.815 109.161 o
-2 -9 1 57.950 53.099 5.105 179.155 o
-2 -9 2 934.117 957.441 17.038 2.823 o
-2 -9 3 987.941 1023.740 17.742 2.530 o
-2 -9 4 220.314 240.505 9.389 29.444 o
-2 -9 5 897.865 923.991 17.840 3.002 o
-2 -9 6 268.217 302.200 10.847 21.201 o
-2 -9 7 223.250 228.249 9.878 29.277 o
-2 -9 8 82.222 71.203 6.387 115.772 o
-2 -9 9 71.499 64.258 6.406 129.520 o
-2 -9 10 87.440 63.310 6.964 108.402 o
-2 -9 11 39.220 32.618 11.199 95.459 o
-2 -9 12 16.542 11.072 11.727 102.488 o
-2 -8 1 516.651 486.203 11.570 8.505 o
-2 -8 2 2019.660 2021.370 23.297 0.685 o
-2 -8 3 2449.580 2500.950 26.173 0.467 o
-2 -8 4 831.781 731.969 14.466 3.834 o
-2 -8 5 1718.870 1655.010 22.466 0.950 o
-2 -8 6 416.563 396.368 11.864 11.849 o
-2 -8 7 50.556 37.557 4.822 219.801 o
-2 -8 8 234.208 255.997 10.710 25.899 o
-2 -8 9 85.303 96.368 7.560 92.602 o
-2 -8 10 204.320 230.763 11.639 29.114 o
-2 -8 11 104.108 109.386 8.832 71.042 o
-2 -8 12 1.740 -0.254 11.218 121.347 o
-2 -8 13 3.522 -1.095 12.685 94.497 o
-2 -7 1 0.020 -0.156 4.568 736.953 o
-2 -7 2 80.442 86.568 4.988 124.867 o
-2 -7 3 26.308 26.486 3.433 429.285 o
-2 -7 4 321.134 316.734 9.272 18.203 o
-2 -7 5 112.048 112.477 6.162 81.689 o
-2 -7 6 181.458 144.303 7.208 47.117 o
-2 -7 7 30.533 26.007 4.010 358.266 o
-2 -7 8 10.301 11.150 7.110 259.055 o
-2 -7 9 54.888 45.685 5.497 183.010 o
-2 -7 10 25.534 12.656 8.881 157.448 o
-2 -7 11 0.306 -1.839 9.908 156.447 o
-2 -7 12 18.054 4.235 11.150 113.340 o
-2 -7 13 0.888 -0.440 12.108 104.587 o
-2 -6 1 2550.100 2540.030 22.828 0.441 o
-2 -6 2 2895.890 2517.760 22.740 0.376 o
-2 -6 3 3254.250 3247.780 26.251 0.275 o
-2 -6 4 1043.960 1051.980 15.561 2.359 o
-2 -6 5 520.091 472.940 11.189 8.606 o
-2 -6 6 146.956 150.865 7.081 55.839 o
-2 -6 7 27.301 15.581 6.328 252.034 o
-2 -6 8 568.707 598.200 15.414 6.523 o
-2 -6 9 172.376 166.642 9.399 41.994 o
-2 -6 10 148.655 152.802 9.536 48.024 o
-2 -6 11 59.588 54.859 6.768 142.601 o
-2 -6 12 23.841 13.712 10.993 110.731 o
-2 -6 13 1.963 3.316 12.001 105.407 o
-2 -5 1 4063.290 3711.790 25.469 0.189 o
-2 -5 2 1192.150 1121.370 14.065 1.942 o
-2 -5 3 1418.400 1312.580 15.825 1.415 o
-2 -5 4 725.613 697.248 12.148 4.713 o
-2 -5 5 768.578 778.847 13.634 4.091 o
-2 -5 6 313.344 289.290 9.106 19.568 o
-2 -5 7 1255.580 1333.990 20.794 1.598 o
-2 -5 8 643.375 663.456 16.050 5.355 o
-2 -5 9 494.772 522.518 15.336 8.116 o
-2 -5 10 59.352 55.603 5.839 159.768 o
-2 -5 11 0.202 1.917 9.292 176.930 o
-2 -5 12 3.166 3.932 10.436 137.789 o
-2 -5 13 0.066 -1.223 11.942 107.834 o
-2 -4 1 458.263 420.761 8.206 10.939 o
-2 -4 2 800.871 838.352 11.385 3.786 o
-2 -4 3 5.835 2.201 3.374 1018.600 o
-2 -4 4 2.919 4.695 3.775 901.928 o
-2 -4 5 59.666 42.966 3.678 218.671 o
-2 -4 6 67.109 72.132 4.988 150.570 o
-2 -4 7 49.104 35.992 4.343 241.282 o
-2 -4 8 0.621 0.068 6.436 368.359 o
-2 -4 9 1.084 1.731 7.277 284.994 o
-2 -4 10 110.426 102.882 7.805 75.695 o
-2 -4 11 47.067 30.887 10.309 104.317 o
-2 -4 12 0.214 -0.059 10.455 140.570 o
-2 -4 13 1.231 0.156 11.786 110.200 o
-2 -3 1 2109.450 1860.200 15.453 0.690 o
-2 -3 2 7270.710 7266.310 30.408 0.057 o
-2 -3 3 702.906 594.454 9.556 5.438 o
-2 -3 4 3210.270 3246.170 23.943 0.280 o
-2 -3 5 1439.440 1319.200 16.793 1.381 o
-2 -3 6 1116.300 1098.100 16.676 2.110 o
-2 -3 7 1936.630 1839.990 24.060 0.763 o
-2 -3 8 370.085 386.255 12.128 13.456 o
-2 -3 9 173.258 165.351 8.714 43.417 o
-2 -3 10 196.506 206.879 10.426 33.139 o
-2 -3 11 0.252 -2.621 9.477 171.005 o
-2 -3 12 4.109 1.575 10.583 134.235 o
-2 -3 13 2.479 1.976 11.942 106.493 o
-2 -2 1 2857.070 2726.900 16.842 0.367 o
-2 -2 2 2175.420 2039.380 15.326 0.627 o
-2 -2 3 2283.510 2446.070 18.202 0.523 o
-2 -2 4 734.060 578.737 9.947 5.209 o
-2 -2 5 824.645 748.185 12.519 3.879 o
-2 -2 6 1229.740 1195.640 17.263 1.778 o
-2 -2 7 1022.440 1032.860 17.654 2.418 o
-2 -2 8 143.683 144.850 7.678 55.954 o
-2 -2 9 0.285 -1.340 7.345 284.326 o
-2 -2 10 37.943 25.596 9.057 134.773 o
-2 -2 11 0.138 -2.934 9.428 172.897 o
-2 -2 12 19.683 12.930 11.120 110.833 o
-2 -2 13 20.939 11.805 12.519 89.280 o
-2 -1 1 302.900 322.661 5.868 20.411 o
-2 -1 2 221.317 196.736 5.213 36.622 o
-2 -1 3 677.503 582.091 8.891 5.778 o
-2 -1 4 50.896 43.925 3.247 255.431 o
-2 -1 5 79.008 84.494 4.695 130.667 o
-2 -1 6 57.987 60.767 4.489 184.341 o
-2 -1 7 11.253 4.069 5.428 418.324 o
-2 -1 8 120.013 115.157 6.895 73.300 o
-2 -1 9 189.581 185.117 9.311 37.524 o
-2 -1 10 17.325 8.763 8.441 184.034 o
-2 -1 11 0.111 -3.795 9.477 171.145 o
-2 -1 12 0.030 -0.274 10.837 130.964 o
-2 -1 13 0.700 1.565 12.392 99.666 o
-2 0 1 2995.140 3084.280 15.111 0.319 o
-2 0 2 5090.380 5177.260 21.948 0.114 o
-2 0 3 5069.500 4859.890 24.608 0.119 o
-2 0 4 1547.610 1451.960 15.492 1.194 o
-2 0 5 5761.040 5793.300 34.584 0.090 o
-2 0 6 1118.870 1066.520 16.480 2.142 o
-2 0 7 832.626 863.400 16.451 3.440 o
-2 0 8 666.805 700.368 16.314 4.982 o
-2 0 9 193.765 217.872 10.191 33.119 o
-2 0 10 53.617 47.279 5.800 176.672 o
-2 0 11 14.883 13.341 9.644 146.157 o
-2 0 12 38.696 33.420 11.805 87.901 o
-2 0 13 23.287 15.228 12.871 83.661 o
-2 1 1 119.170 103.038 3.609 92.433 o
-2 1 2 8913.280 9867.910 81.247 0.035 o
-2 1 3 752.822 649.851 9.380 4.772 o
-2 1 4 1914.050 1778.040 17.478 0.802 o
-2 1 5 2416.630 2507.630 23.102 0.476 o
-2 1 6 424.157 425.133 10.661 11.449 o
-2 1 7 26.311 20.637 3.511 447.652 o
-2 1 8 126.184 137.163 7.971 61.787 o
-2 1 9 8.404 9.321 7.541 240.197 o
-2 1 10 11.069 7.326 8.519 190.568 o
-2 1 11 42.009 29.870 10.504 104.529 o
-2 1 12 49.087 37.303 6.279 181.299 o
-2 2 1 5995.270 5914.110 22.221 0.084 o
-2 2 2 4742.290 4702.520 22.574 0.133 o
-2 2 3 13.357 37.381 3.159 531.665 o
-2 2 4 282.866 260.721 7.120 23.879 o
-2 2 5 0.480 -0.176 4.313 815.859 o
-2 2 6 343.828 335.474 9.849 16.309 o
-2 2 7 812.384 891.725 17.321 3.446 o
-2 2 8 31.415 27.914 4.509 317.152 o
-2 2 9 60.565 50.536 5.458 169.453 o
-2 2 10 1.648 1.927 8.587 204.778 o
-2 2 11 0.108 2.191 10.045 151.512 o
-2 2 12 1.050 -1.262 11.717 111.595 o
-2 3 1 2996.090 2675.270 16.588 0.348 o
-2 3 2 3203.210 2974.350 19.248 0.298 o
-2 3 3 7288.070 7083.310 33.420 0.058 o
-2 3 4 778.700 669.011 11.629 4.444 o
-2 3 5 2670.070 2662.040 25.322 0.403 o
-2 3 6 683.934 667.789 14.025 5.089 o
-2 3 7 1170.940 1225.420 20.686 1.830 o
-2 3 8 91.659 86.959 6.563 99.973 o
-2 3 9 172.262 191.523 9.800 38.970 o
-2 3 10 87.408 89.962 7.834 90.961 o
-2 3 11 113.546 118.013 9.477 62.632 o
-2 3 12 53.412 50.937 7.335 141.584 o
-2 4 1 7617.430 7092.660 29.381 0.054 o
-2 4 2 782.038 613.184 9.624 4.682 o
-2 4 3 2723.920 2457.820 21.087 0.414 o
-2 4 4 1391.930 1262.620 16.656 1.479 o
-2 4 5 6.137 -2.025 4.695 607.589 o
-2 4 6 635.929 595.060 13.859 5.896 o
-2 4 7 132.934 136.957 7.619 60.856 o
-2 4 8 155.275 150.210 8.587 49.421 o
-2 4 9 74.034 65.383 6.533 124.589 o
-2 4 10 127.960 127.705 9.106 58.208 o
-2 4 11 40.698 29.508 11.727 88.817 o
-2 4 12 5.752 4.616 12.167 100.950 o
-2 5 1 1523.980 1374.920 14.495 1.261 o
-2 5 2 2065.570 2020.950 18.573 0.671 o
-2 5 3 1.585 2.455 3.873 933.270 o
-2 5 4 365.590 362.351 9.301 14.882 o
-2 5 5 641.238 587.295 12.989 5.934 o
-2 5 6 71.974 75.535 5.917 129.470 o
-2 5 7 142.277 153.007 8.157 53.697 o
-2 5 8 34.761 23.366 8.167 160.829 o
-2 5 9 16.900 15.180 8.959 163.057 o
-2 5 10 4.734 5.448 9.820 153.163 o
-2 5 11 4.355 3.316 11.179 120.002 o
-2 6 1 3562.620 3320.240 24.148 0.241 o
-2 6 2 2119.200 2013.940 20.138 0.649 o
-2 6 3 555.788 437.896 10.074 8.383 o
-2 6 4 2105.670 1884.330 22.505 0.678 o
-2 6 5 2594.890 2584.220 28.197 0.424 o
-2 6 6 477.352 480.344 13.321 9.092 o
-2 6 7 792.473 841.961 18.701 3.624 o
-2 6 8 127.830 116.457 8.177 63.987 o
-2 6 9 173.333 187.846 10.514 37.709 o
-2 6 10 103.819 104.339 8.979 71.309 o
-2 6 11 17.410 14.084 11.893 98.924 o
-2 7 1 2518.180 2337.140 21.909 0.473 o
-2 7 2 576.959 496.902 10.729 7.487 o
-2 7 3 745.527 688.788 13.292 4.556 o
-2 7 4 555.853 523.408 12.676 7.440 o
-2 7 5 536.271 572.409 14.260 7.220 o
-2 7 6 98.319 95.928 6.631 91.825 o
-2 7 7 119.108 117.504 7.942 68.144 o
-2 7 8 81.327 75.702 6.846 109.587 o
-2 7 9 98.345 82.939 8.020 85.268 o
-2 7 10 35.148 24.011 11.600 93.783 o
-2 7 11 2.985 1.369 12.138 103.055 o
-2 8 1 13.031 14.915 2.827 785.568 o
-2 8 2 507.180 498.976 11.482 8.572 o
-2 8 3 348.668 337.352 10.094 15.952 o
-2 8 4 280.323 292.958 10.103 21.133 o
-2 8 5 217.158 211.847 9.184 31.795 o
-2 8 6 1.110 1.633 7.120 297.479 o
-2 8 7 103.621 82.499 6.905 90.709 o
-2 8 8 3.420 1.878 9.047 182.776 o
-2 8 9 6.810 2.455 10.406 136.583 o
-2 8 10 10.012 1.946 11.521 110.880 o
-2 9 1 1316.600 1268.270 18.378 1.572 o
-2 9 2 1728.650 1745.580 22.945 0.911 o
-2 9 3 2339.960 2439.540 28.589 0.500 o
-2 9 4 828.729 876.399 17.801 3.393 o
-2 9 5 552.253 607.139 15.659 6.648 o
-2 9 6 363.495 406.882 13.722 12.865 o
-2 9 7 228.995 247.048 11.805 25.714 o
-2 9 8 177.690 184.413 10.817 36.721 o
-2 9 9 61.932 47.573 6.485 149.433 o
-2 9 10 33.597 17.859 12.627 82.891 o
-2 10 1 24.908 24.804 3.766 419.386 o
-2 10 2 56.311 56.630 5.057 179.961 o
-2 10 3 606.433 660.003 15.610 5.752 o
-2 10 4 103.051 109.073 7.287 80.902 o
-2 10 5 228.668 241.571 10.534 27.300 o
-2 10 6 134.571 135.872 8.705 56.545 o
-2 10 7 50.334 39.025 5.634 194.974 o
-2 10 8 74.866 54.400 7.365 117.928 o
-2 10 9 1.548 3.355 11.414 116.551 o
-2 11 1 87.441 91.184 6.445 102.555 o
-2 11 2 21.659 17.810 7.189 220.845 o
-2 11 3 6.214 5.702 7.159 273.921 o
-2 11 4 24.997 24.021 4.499 361.650 o
-2 11 5 36.304 25.586 9.008 137.302 o
-2 11 6 38.161 25.635 4.685 283.623 o
-2 11 7 8.255 2.807 9.908 148.771 o
-2 11 8 5.789 4.167 11.033 122.130 o
-2 11 9 15.852 8.558 12.392 93.263 o
-2 12 1 1255.500 1379.040 23.248 1.548 o
-2 12 2 937.683 1083.150 21.322 2.532 o
-2 12 3 718.215 812.277 18.965 4.106 o
-2 12 4 284.477 310.103 12.421 18.963 o
-2 12 5 276.887 303.286 12.950 19.284 o
-2 12 6 144.955 142.767 9.849 49.097 o
-2 12 7 50.904 40.658 6.905 160.246 o
-2 12 8 36.097 33.313 12.568 80.294 o
-2 13 1 196.414 210.018 10.133 33.376 o
-2 13 2 100.467 95.605 7.404 85.129 o
-2 13 3 45.496 39.915 5.321 214.050 o
-2 13 4 69.719 74.772 7.013 118.021 o
-2 13 5 46.210 44.443 6.348 178.286 o
-2 13 6 41.517 31.934 5.438 230.250 o
-2 13 7 5.606 2.827 11.453 113.998 o
-2 14 1 0.113 -0.675 8.147 231.535 o
-2 14 2 16.864 12.822 8.763 170.708 o
-2 14 3 3.104 -0.968 9.321 173.780 o
-2 14 4 30.773 21.155 10.387 115.486 o
-2 14 5 19.470 12.069 10.768 117.716 o
-2 14 6 5.740 3.687 11.297 116.810 o
-2 14 7 17.315 12.412 12.617 89.094 o
-2 15 1 235.219 282.092 12.754 22.883 o
-2 15 2 122.414 123.675 9.008 60.978 o
-2 15 3 178.405 222.450 11.903 32.160 o
-2 15 4 132.226 135.040 10.045 52.453 o
-2 15 5 58.335 47.631 6.719 149.557 o
-2 15 6 27.507 22.094 12.842 81.703 o
-2 16 1 69.454 62.723 7.110 122.525 o
-2 16 2 51.882 48.874 6.328 165.997 o
-2 16 3 45.357 41.773 6.142 187.768 o
-2 16 4 16.767 13.869 11.971 98.043 o
-2 16 5 2.571 -0.274 12.089 104.292 o
-2 17 1 35.669 24.363 11.424 95.855 o
-2 17 2 29.835 19.669 11.815 93.953 o
-2 17 3 38.057 25.410 12.656 79.991 o
-2 17 4 25.445 11.610 12.734 85.179 o
-2 18 1 75.337 62.381 7.893 107.659 o
-2 18 2 55.827 50.077 7.189 142.102 o
-2 19 1 4.281 3.052 12.725 93.220 o
-1 -19 3 34.293 26.818 13.566 71.916 o
-1 -19 4 30.084 22.593 13.390 75.179 o
-1 -18 1 18.694 17.879 12.226 92.922 o
-1 -18 2 19.094 18.720 12.079 94.658 o
-1 -18 3 51.888 52.942 7.218 144.458 o
-1 -18 4 35.255 32.775 6.054 221.532 o
-1 -18 5 19.920 8.411 12.275 93.503 o
-1 -18 6 3.897 6.318 12.216 100.530 o
-1 -18 7 0.045 0.108 12.402 99.978 o
-1 -17 1 3.188 0.274 10.974 125.899 o
-1 -17 2 11.444 7.766 11.199 114.872 o
-1 -17 3 36.455 27.268 11.277 96.869 o
-1 -17 4 51.471 42.174 6.348 171.456 o
-1 -17 5 73.017 32.677 12.216 72.075 o
-1 -17 6 42.177 30.574 12.108 83.676 o
-1 -17 7 5.342 -0.323 11.649 111.036 o
-1 -17 8 0.719 -4.225 12.372 100.241 o
-1 -16 1 136.261 163.561 10.543 46.614 o
-1 -16 2 213.424 246.158 12.705 26.184 o
-1 -16 3 223.430 244.241 12.549 25.556 o
-1 -16 4 148.496 117.944 9.145 53.600 o
-1 -16 5 87.339 81.091 8.089 91.444 o
-1 -16 6 40.191 46.086 6.240 190.603 o
-1 -16 7 27.093 27.464 11.649 95.763 o
-1 -16 8 14.259 15.581 11.746 102.187 o
-1 -16 9 21.794 19.904 12.549 87.292 o
-1 -15 1 196.325 191.719 11.062 33.179 o
-1 -15 2 56.334 44.795 6.250 164.049 o
-1 -15 3 16.433 12.725 9.311 154.270 o
-1 -15 4 7.309 2.915 9.272 169.591 o
-1 -15 5 6.037 0.841 9.292 171.322 o
-1 -15 6 17.163 18.485 9.947 134.666 o
-1 -15 7 28.362 15.727 10.690 113.073 o
-1 -15 8 13.184 16.803 10.817 118.985 o
-1 -15 9 10.028 2.964 11.355 113.754 o
-1 -15 10 10.610 10.475 12.343 95.450 o
-1 -14 1 165.694 156.059 9.800 43.390 o
-1 -14 2 202.045 195.064 10.495 33.086 o
-1 -14 3 171.940 138.307 8.891 46.149 o
-1 -14 4 102.493 83.546 6.886 91.232 o
-1 -14 5 33.567 13.654 9.057 144.217 o
-1 -14 6 0.859 0.000 8.998 188.936 o
-1 -14 7 3.545 2.269 9.233 175.338 o
-1 -14 8 29.497 13.311 10.436 117.766 o
-1 -14 9 32.283 12.509 11.512 98.690 o
-1 -14 10 16.308 10.094 11.561 105.524 o
-1 -14 11 11.603 8.089 12.549 92.581 o
-1 -13 1 789.645 877.670 19.855 3.513 o
-1 -13 2 315.592 342.193 12.558 16.435 o
-1 -13 3 374.115 412.271 13.644 12.462 o
-1 -13 4 367.281 443.168 14.201 12.049 o
-1 -13 5 128.519 159.776 8.979 53.912 o
-1 -13 6 208.133 248.476 11.297 28.204 o
-1 -13 7 98.505 105.787 8.137 78.562 o
-1 -13 8 274.203 308.225 13.605 18.884 o
-1 -13 9 69.351 65.559 7.218 119.835 o
-1 -13 10 25.228 24.227 11.424 100.523 o
-1 -13 11 0.806 -0.557 12.001 106.496 o
-1 -12 1 134.053 108.701 7.688 65.233 o
-1 -12 2 94.550 82.088 6.651 98.897 o
-1 -12 3 26.782 30.134 4.303 348.196 o
-1 -12 4 27.485 31.425 4.587 322.784 o
-1 -12 5 172.657 179.063 9.106 41.384 o
-1 -12 6 65.662 68.572 6.524 131.804 o
-1 -12 7 45.209 38.389 5.409 213.764 o
-1 -12 8 26.310 20.588 9.448 138.228 o
-1 -12 9 2.116 3.834 9.575 163.957 o
-1 -12 10 0.202 -4.597 10.543 138.243 o
-1 -12 11 2.842 -0.861 11.678 111.568 o
-1 -11 1 1044.270 1030.920 19.356 2.338 o
-1 -11 2 294.307 258.393 9.976 21.442 o
-1 -11 3 519.935 478.975 13.458 8.295 o
-1 -11 4 90.445 77.687 6.289 106.916 o
-1 -11 5 0.695 2.954 6.680 336.116 o
-1 -11 6 299.326 261.210 10.827 20.493 o
-1 -11 7 238.631 229.296 10.641 26.814 o
-1 -11 8 143.226 129.475 8.568 55.437 o
-1 -11 9 26.556 15.248 9.409 141.248 o
-1 -11 10 18.894 11.081 10.143 131.577 o
-1 -11 11 0.363 -0.929 10.925 128.676 o
-1 -11 12 0.829 2.435 11.942 107.053 o
-1 -10 1 872.047 910.553 17.018 3.149 o
-1 -10 2 911.459 1011.110 17.801 2.795 o
-1 -10 3 672.841 705.532 15.082 4.974 o
-1 -10 4 561.603 646.467 14.739 6.375 o
-1 -10 5 106.273 110.002 6.817 81.805 o
-1 -10 6 881.800 852.906 18.309 3.198 o
-1 -10 7 199.245 184.785 9.340 35.982 o
-1 -10 8 128.986 137.290 8.587 58.456 o
-1 -10 9 18.866 14.651 8.910 162.707 o
-1 -10 10 14.009 7.247 9.741 146.833 o
-1 -10 11 19.969 16.989 10.837 114.755 o
-1 -10 12 15.562 11.473 12.138 96.494 o
-1 -9 1 106.127 123.979 6.455 80.205 o
-1 -9 2 267.790 315.218 9.536 21.563 o
-1 -9 3 427.390 415.088 11.199 11.400 o
-1 -9 4 212.093 193.333 8.089 35.170 o
-1 -9 5 175.357 158.436 7.756 45.745 o
-1 -9 6 542.853 507.025 13.536 7.679 o
-1 -9 7 92.597 115.362 7.433 83.826 o
-1 -9 8 53.851 50.937 5.624 177.122 o
-1 -9 9 9.539 7.531 8.460 194.982 o
-1 -9 10 10.966 6.846 9.116 168.964 o
-1 -9 11 42.489 29.420 5.849 215.974 o
-1 -9 12 0.904 -0.039 11.424 117.445 o
-1 -8 1 1979.430 2012.650 22.231 0.705 o
-1 -8 2 519.627 503.270 11.081 8.349 o
-1 -8 3 263.635 249.522 8.186 25.491 o
-1 -8 4 194.764 187.856 7.511 39.305 o
-1 -8 5 987.124 888.145 16.285 2.772 o
-1 -8 6 1070.420 1025.230 18.534 2.289 o
-1 -8 7 256.836 218.351 9.653 26.496 o
-1 -8 8 345.390 347.308 12.382 15.073 o
-1 -8 9 15.618 15.228 8.118 194.258 o
-1 -8 10 3.344 4.744 8.763 192.654 o
-1 -8 11 14.945 7.511 10.348 130.819 o
-1 -8 12 27.793 19.424 11.727 96.047 o
-1 -7 1 1687.070 1661.570 18.896 0.979 o
-1 -7 2 856.445 689.306 12.059 3.877 o
-1 -7 3 252.964 259.420 7.932 26.223 o
-1 -7 4 2952.630 2525.270 24.813 0.365 o
-1 -7 5 1591.520 1526.920 20.588 1.103 o
-1 -7 6 1018.690 953.010 17.194 2.552 o
-1 -7 7 0.917 -0.284 6.377 373.862 o
-1 -7 8 105.248 109.073 7.277 79.834 o
-1 -7 9 24.378 20.490 8.157 176.382 o
-1 -7 10 71.935 66.430 6.680 124.207 o
-1 -7 11 102.727 109.709 8.842 71.477 o
-1 -7 12 55.056 41.088 6.543 162.228 o
-1 -7 13 38.962 22.662 13.302 73.702 o
-1 -6 1 603.356 605.633 10.573 6.401 o
-1 -6 2 3412.970 3461.570 25.224 0.248 o
-1 -6 3 334.591 439.314 9.575 14.499 o
-1 -6 4 2148.850 2099.720 21.635 0.620 o
-1 -6 5 229.708 182.408 7.159 34.452 o
-1 -6 6 2.096 -0.411 5.105 566.224 o
-1 -6 7 201.347 197.939 8.509 35.893 o
-1 -6 8 3.215 1.584 6.573 339.420 o
-1 -6 9 180.718 167.845 8.842 41.451 o
-1 -6 10 47.350 39.670 5.555 202.863 o
-1 -6 11 1.644 -2.191 9.927 154.732 o
-1 -6 12 0.747 2.553 11.013 125.727 o
-1 -6 13 0.351 -4.528 12.568 97.271 o
-1 -5 1 565.490 496.316 8.910 7.808 o
-1 -5 2 705.360 784.344 11.160 4.571 o
-1 -5 3 4127.100 3640.510 24.833 0.187 o
-1 -5 4 723.510 700.182 11.815 4.729 o
-1 -5 5 802.682 661.128 12.441 4.284 o
-1 -5 6 606.761 616.666 13.018 6.149 o
-1 -5 7 34.004 31.445 3.834 333.998 o
-1 -5 8 133.395 125.524 7.110 64.657 o
-1 -5 9 41.451 32.090 4.489 267.993 o
-1 -5 10 135.337 114.844 8.411 60.703 o
-1 -5 11 270.589 296.254 13.820 19.290 o
-1 -5 12 38.481 26.095 11.698 90.735 o
-1 -5 13 8.752 6.426 12.187 99.204 o
-1 -4 1 41.276 35.132 3.648 298.102 o
-1 -4 2 3458.380 2973.300 19.747 0.269 o
-1 -4 3 3327.610 2935.840 21.126 0.285 o
-1 -4 4 3671.200 3029.060 23.483 0.245 o
-1 -4 5 1119.050 1059.410 15.111 2.163 o
-1 -4 6 250.081 230.998 8.010 27.937 o
-1 -4 7 798.318 758.377 15.395 3.921 o
-1 -4 8 265.324 241.825 9.839 24.478 o
-1 -4 9 438.238 440.576 13.908 10.274 o
-1 -4 10 292.009 326.173 13.605 17.462 o
-1 -4 11 184.724 181.655 11.091 35.388 o
-1 -4 12 18.553 10.211 11.179 111.043 o
-1 -4 13 4.380 3.188 12.050 103.666 o
-1 -3 1 1557.990 1690.510 12.979 1.082 o
-1 -3 2 3179.800 3011.380 18.211 0.299 o
-1 -3 3 931.346 737.798 10.172 3.398 o
-1 -3 4 583.726 569.455 9.888 6.925 o
-1 -3 5 20.330 11.306 4.010 494.650 o
-1 -3 6 5.319 2.494 4.382 677.291 o
-1 -3 7 75.595 54.585 4.695 155.315 o
-1 -3 8 35.048 29.469 3.951 327.214 o
-1 -3 9 0.931 -1.095 7.404 278.140 o
-1 -3 10 0.061 -1.086 8.832 197.124 o
-1 -3 11 3.958 -1.056 9.800 156.743 o
-1 -3 12 0.829 0.313 10.641 135.227 o
-1 -3 13 1.712 0.029 12.226 102.294 o
-1 -2 1 12155.400 13324.000 82.186 0.019 o
-1 -2 2 39.567 15.776 2.660 418.431 o
-1 -2 3 4252.400 3711.830 21.331 0.178 o
-1 -2 4 2348.260 2105.010 18.456 0.554 o
-1 -2 5 464.127 399.302 9.086 10.952 o
-1 -2 6 444.437 419.567 10.446 11.002 o
-1 -2 7 87.555 73.188 5.252 121.747 o
-1 -2 8 354.740 325.048 11.277 15.548 o
-1 -2 9 429.796 453.760 14.260 10.250 o
-1 -2 10 231.599 247.713 12.040 25.219 o
-1 -2 11 20.972 16.109 9.761 137.037 o
-1 -2 12 0.649 -0.567 10.807 131.313 o
-1 -2 13 8.302 6.387 12.363 96.677 o
-1 -1 2 9526.390 9863.950 74.068 0.032 o
-1 -1 3 1728.820 1572.120 13.791 0.991 o
-1 -1 4 647.209 509.050 9.164 6.531 o
-1 -1 5 633.811 559.117 10.720 6.306 o
-1 -1 6 939.656 915.922 15.121 2.911 o
-1 -1 7 1245.600 1190.440 19.395 1.739 o
-1 -1 8 717.267 699.214 16.383 4.597 o
-1 -1 9 1009.900 1031.490 21.928 2.391 o
-1 -1 10 125.727 124.116 8.675 61.252 o
-1 -1 11 35.408 21.400 10.162 116.558 o
-1 -1 12 8.167 5.409 11.003 121.131 o
-1 0 2 542.248 555.821 7.120 7.815 o
-1 0 3 141.650 105.992 4.294 75.519 o
-1 0 4 271.996 262.873 6.670 25.006 o
-1 0 5 776.701 779.767 12.725 4.064 o
-1 0 6 47.401 26.945 3.325 301.928 o
-1 0 7 131.620 114.208 6.739 69.118 o
-1 0 8 14.979 8.822 6.954 259.481 o
-1 0 9 143.095 126.209 8.323 56.802 o
-1 0 10 4.409 -4.685 8.920 187.814 o
-1 0 11 3.392 1.731 9.585 163.420 o
-1 0 12 6.789 4.098 11.101 120.171 o
-1 1 2 72.762 47.592 3.120 190.749 o
-1 1 3 4119.860 3930.760 22.241 0.179 o
-1 1 4 104.778 85.834 4.127 108.147 o
-1 1 5 1480.470 1549.230 18.299 1.204 o
-1 1 6 764.310 756.675 14.456 4.160 o
-1 1 7 1478.080 1572.380 22.936 1.177 o
-1 1 8 805.868 944.912 19.659 3.291 o
-1 1 9 96.931 121.954 8.089 75.829 o
-1 1 10 13.340 9.047 8.812 175.478 o
-1 1 11 7.246 5.917 9.966 146.679 o
-1 1 12 3.927 1.066 11.639 111.604 o
-1 2 1 1231.030 1076.940 8.881 1.938 o
-1 2 2 3914.550 3502.660 18.925 0.207 o
-1 2 3 61.410 49.431 3.453 210.212 o
-1 2 4 2839.320 2560.080 21.664 0.382 o
-1 2 5 1811.150 1766.340 20.344 0.859 o
-1 2 6 1760.420 1810.220 22.789 0.871 o
-1 2 7 1639.530 1783.390 25.214 0.952 o
-1 2 8 353.616 382.655 12.989 13.853 o
-1 2 9 50.683 41.362 5.262 202.106 o
-1 2 10 2.595 0.831 8.930 189.144 o
-1 2 11 39.304 33.303 5.536 230.616 o
-1 2 12 25.557 28.383 12.529 84.910 o
-1 3 1 1731.700 1535.790 12.275 1.005 o
-1 3 2 559.020 514.028 8.274 7.812 o
-1 3 3 436.121 427.764 8.450 11.428 o
-1 3 4 709.082 637.704 11.355 5.118 o
-1 3 5 90.013 60.679 4.538 133.385 o
-1 3 6 62.260 56.512 5.057 169.357 o
-1 3 7 222.329 199.876 9.047 32.065 o
-1 3 8 2.651 2.015 6.974 304.216 o
-1 3 9 16.504 13.869 8.499 179.590 o
-1 3 10 16.608 16.705 9.634 143.517 o
-1 3 11 9.375 4.548 10.827 124.464 o
-1 3 12 0.429 -1.506 12.372 100.340 o
-1 4 1 1895.130 1659.300 14.280 0.851 o
-1 4 2 780.108 757.770 10.680 4.164 o
-1 4 3 2505.430 2369.420 20.745 0.473 o
-1 4 4 2454.390 2334.490 23.063 0.489 o
-1 4 5 2681.140 2660.340 26.799 0.400 o
-1 4 6 2058.860 2148.520 26.730 0.638 o
-1 4 7 20.310 13.321 6.788 249.229 o
-1 4 8 82.802 87.341 6.827 104.029 o
-1 4 9 15.817 9.419 8.724 175.341 o
-1 4 10 28.959 26.007 10.328 116.171 o
-1 4 11 47.034 31.934 5.976 199.018 o
-1 5 1 1121.430 1057.240 12.685 2.181 o
-1 5 2 3588.710 3302.440 23.767 0.240 o
-1 5 3 1633.520 1363.270 16.881 1.151 o
-1 5 4 2467.040 2267.160 23.786 0.493 o
-1 5 5 1706.530 1683.840 22.319 0.948 o
-1 5 6 712.855 764.294 16.353 4.402 o
-1 5 7 116.459 124.927 7.472 69.955 o
-1 5 8 22.763 18.798 8.206 178.108 o
-1 5 9 75.337 64.082 6.387 125.859 o
-1 5 10 62.868 57.334 6.807 136.685 o
-1 5 11 26.468 19.473 12.157 90.728 o
-1 6 1 82.739 70.674 4.079 141.154 o
-1 6 2 636.733 567.733 10.759 6.220 o
-1 6 3 46.037 54.224 4.264 225.858 o
-1 6 4 10.842 8.079 5.506 398.965 o
-1 6 5 42.613 29.635 4.695 259.686 o
-1 6 6 49.123 34.692 4.421 240.639 o
-1 6 7 0.797 1.125 7.120 299.211 o
-1 6 8 0.324 -2.964 8.177 229.500 o
-1 6 9 7.771 2.846 9.448 163.230 o
-1 6 10 0.205 0.822 10.798 131.570 o
-1 6 11 1.491 -2.484 12.509 97.811 o
-1 7 1 1239.020 1135.480 15.346 1.829 o
-1 7 2 3068.430 2902.830 25.958 0.318 o
-1 7 3 2475.720 2382.020 25.283 0.476 o
-1 7 4 3632.410 3610.260 33.763 0.221 o
-1 7 5 162.205 176.608 8.411 45.217 o
-1 7 6 28.497 27.493 4.127 357.963 o
-1 7 7 71.138 69.559 6.035 132.157 o
-1 7 8 28.618 20.305 9.145 143.580 o
-1 7 9 80.601 51.221 6.592 124.327 o
-1 7 10 65.760 55.211 7.805 119.410 o
-1 8 1 4021.320 3933.090 30.799 0.184 o
-1 8 2 1890.870 1759.810 21.684 0.813 o
-1 8 3 2122.220 2206.930 25.674 0.606 o
-1 8 4 1014.120 1120.520 19.415 2.299 o
-1 8 5 3.913 -0.548 6.621 335.026 o
-1 8 6 107.272 127.490 7.717 72.096 o
-1 8 7 51.170 49.509 5.898 176.674 o
-1 8 8 140.777 157.712 9.937 48.078 o
-1 8 9 109.669 93.082 9.350 69.043 o
-1 8 10 28.071 10.152 12.470 87.803 o
-1 9 1 0.045 2.064 5.399 517.730 o
-1 9 2 271.924 246.265 9.409 24.035 o
-1 9 3 74.978 57.979 5.722 138.838 o
-1 9 4 10.383 9.565 6.553 299.600 o
-1 9 5 8.797 4.861 7.062 274.746 o
-1 9 6 46.184 23.679 8.597 137.878 o
-1 9 7 0.016 -0.059 9.076 186.703 o
-1 9 8 0.121 0.694 10.172 148.320 o
-1 9 9 5.097 6.983 11.414 114.018 o
-1 10 1 3260.030 3319.240 32.374 0.269 o
-1 10 2 1699.520 1734.490 24.725 0.930 o
-1 10 3 196.625 201.822 9.155 35.375 o
-1 10 4 0.566 1.663 6.778 329.583 o
-1 10 5 2.552 2.250 7.678 252.620 o
-1 10 6 173.826 190.359 10.162 38.111 o
-1 10 7 143.734 135.891 9.487 51.366 o
-1 10 8 160.420 162.074 11.404 39.963 o
-1 10 9 74.218 75.839 8.499 97.075 o
-1 11 1 516.543 505.040 13.957 8.071 o
-1 11 2 610.309 698.197 16.558 5.467 o
-1 11 3 21.658 17.165 7.560 205.310 o
-1 11 4 117.690 125.172 7.785 67.929 o
-1 11 5 168.453 175.405 9.741 41.172 o
-1 11 6 234.641 250.539 12.363 24.525 o
-1 11 7 124.140 115.284 9.722 58.634 o
-1 11 8 39.103 26.838 12.539 80.678 o
-1 12 1 2.013 0.841 7.189 290.465 o
-1 12 2 36.037 18.896 8.030 165.879 o
-1 12 3 8.735 2.426 7.824 230.902 o
-1 12 4 9.318 1.917 8.353 204.151 o
-1 12 5 4.340 -4.255 9.712 159.195 o
-1 12 6 11.520 3.159 10.436 132.487 o
-1 12 7 12.819 12.578 11.659 104.875 o
-1 12 8 10.115 5.115 12.392 95.833 o
-1 13 1 388.095 430.238 13.859 11.721 o
-1 13 2 5.883 -0.117 7.991 229.621 o
-1 13 3 33.486 26.388 9.233 134.502 o
-1 13 4 99.762 108.574 8.167 77.123 o
-1 13 5 194.356 216.033 12.099 30.379 o
-1 13 6 172.143 180.833 12.059 35.375 o
-1 13 7 69.018 73.843 8.754 98.211 o
-1 14 1 49.590 38.751 5.643 196.515 o
-1 14 2 12.506 14.241 8.900 170.380 o
-1 14 3 77.102 79.976 7.365 105.682 o
-1 14 4 226.230 258.344 13.135 24.132 o
-1 14 5 102.734 94.647 9.438 70.864 o
-1 14 6 53.806 35.014 12.940 71.275 o
-1 15 1 0.598 -0.323 8.900 193.420 o
-1 15 2 4.112 1.604 9.448 167.424 o
-1 15 3 0.827 -7.335 10.622 135.823 o
-1 15 4 9.176 5.115 11.238 115.917 o
-1 15 5 12.442 4.499 12.187 98.204 o
-1 16 1 32.452 23.649 10.768 107.311 o
-1 16 2 58.676 55.485 7.081 137.758 o
-1 16 3 162.957 185.675 12.206 36.015 o
-1 16 4 180.283 187.054 12.744 32.655 o
-1 17 1 74.292 92.329 8.939 88.024 o
-1 17 2 100.629 117.543 10.191 63.270 o
-1 17 3 84.599 90.832 9.653 77.568 o
-1 18 1 6.159 -6.641 12.588 95.107 o
-1 18 2 9.207 -2.230 13.419 83.126 o
0 -19 1 0.568 -7.883 12.744 94.539 o
0 -19 2 1.165 -3.316 12.275 101.683 o
0 -19 3 0.236 1.203 11.893 108.414 o
0 -19 4 0.229 -2.690 12.412 99.777 o
0 -19 5 1.095 0.215 12.460 98.673 o
0 -18 1 0.339 -0.587 11.443 117.310 o
0 -18 2 6.278 3.942 11.199 118.457 o
0 -18 3 32.081 24.256 11.795 92.405 o
0 -18 4 37.198 19.669 12.216 86.124 o
0 -18 5 77.433 50.614 7.042 121.652 o
0 -18 6 63.861 70.293 8.353 107.561 o
0 -18 7 24.901 20.862 12.901 82.005 o
0 -17 1 0.103 3.012 10.455 139.636 o
0 -17 2 63.816 45.949 6.925 140.085 o
0 -17 3 151.890 164.333 10.602 43.256 o
0 -17 4 126.459 134.591 10.152 53.580 o
0 -17 5 90.276 88.426 8.626 83.380 o
0 -17 6 21.119 26.955 11.629 98.673 o
0 -17 7 4.717 6.788 11.238 117.730 o
0 -17 8 3.529 4.704 11.981 104.865 o
0 -16 1 8.044 4.303 9.487 161.000 o
0 -16 2 1.246 -3.775 9.966 153.851 o
0 -16 3 2.707 0.773 9.605 163.854 o
0 -16 4 2.647 -2.162 9.918 154.208 o
0 -16 5 18.811 8.313 9.888 138.708 o
0 -16 6 1.702 5.213 10.094 147.675 o
0 -16 7 0.145 0.284 10.446 140.784 o
0 -16 8 0.421 0.049 10.974 127.488 o
0 -16 9 10.507 5.105 11.737 106.140 o
0 -15 1 193.456 182.232 11.179 33.992 o
0 -15 2 394.638 399.028 15.033 11.675 o
0 -15 3 340.974 351.553 13.732 14.660 o
0 -15 4 314.212 325.723 13.351 16.524 o
0 -15 5 106.120 138.092 9.223 62.986 o
0 -15 6 14.796 16.353 9.771 141.652 o
0 -15 7 0.489 1.076 9.683 163.133 o
0 -15 8 7.627 2.504 10.817 126.281 o
0 -15 9 48.206 32.325 12.294 79.362 o
0 -15 10 25.180 13.272 12.597 86.664 o
0 -14 1 545.890 584.282 16.989 6.743 o
0 -14 2 186.645 199.817 10.221 35.316 o
0 -14 3 159.793 194.702 10.064 40.306 o
0 -14 4 63.411 71.682 6.768 128.952 o
0 -14 5 6.726 8.626 8.460 198.252 o
0 -14 6 28.523 26.799 9.468 133.359 o
0 -14 7 1.888 5.555 9.233 175.352 o
0 -14 8 73.549 86.910 8.362 95.451 o
0 -14 9 53.422 50.086 6.846 151.777 o
0 -14 10 46.949 38.271 6.406 180.742 o
0 -14 11 0.883 1.428 12.402 99.471 o
0 -13 1 15.995 8.851 7.834 210.931 o
0 -13 2 8.296 3.130 7.433 253.835 o
0 -13 3 2.395 1.780 7.287 280.561 o
0 -13 4 4.794 7.179 7.345 263.079 o
0 -13 5 3.234 -0.264 7.619 257.418 o
0 -13 6 2.944 -2.915 8.333 216.678 o
0 -13 7 50.409 25.273 9.487 116.868 o
0 -13 8 14.100 -0.127 9.634 152.922 o
0 -13 9 15.701 9.135 10.260 131.786 o
0 -13 10 12.173 7.003 11.091 116.784 o
0 -13 11 10.451 6.670 11.903 103.046 o
0 -12 1 1107.610 1125.400 20.881 2.054 o
0 -12 2 937.450 964.727 19.229 2.759 o
0 -12 3 391.301 365.344 12.030 13.108 o
0 -12 4 225.404 257.464 10.455 26.914 o
0 -12 5 27.776 21.390 7.560 191.184 o
0 -12 6 87.156 95.546 7.052 95.966 o
0 -12 7 439.506 409.640 14.065 10.585 o
0 -12 8 236.763 264.799 12.108 24.007 o
0 -12 9 66.150 56.248 6.934 131.653 o
0 -12 10 39.570 31.826 5.585 229.991 o
0 -12 11 0.608 0.284 11.434 117.317 o
0 -11 1 452.726 451.413 12.715 10.022 o
0 -11 2 99.236 111.724 6.690 86.043 o
0 -11 3 114.528 123.763 6.846 74.081 o
0 -11 4 0.566 3.267 6.250 382.498 o
0 -11 5 53.809 51.221 5.575 178.067 o
0 -11 6 102.843 118.824 7.648 76.424 o
0 -11 7 193.653 213.647 10.270 33.301 o
0 -11 8 112.018 118.374 8.304 68.979 o
0 -11 9 3.537 2.836 9.174 177.218 o
0 -11 10 1.762 1.232 9.771 159.041 o
0 -11 11 2.491 6.348 10.847 127.475 o
0 -11 12 4.366 1.985 12.206 101.304 o
0 -10 1 393.748 353.509 10.583 13.610 o
0 -10 2 42.768 37.186 4.069 270.679 o
0 -10 3 3.610 1.731 5.585 458.318 o
0 -10 4 0.938 -2.817 6.005 420.816 o
0 -10 5 290.932 283.715 10.406 20.547 o
0 -10 6 164.796 125.485 7.688 52.635 o
0 -10 7 152.901 139.540 8.382 51.965 o
0 -10 8 1.563 -1.760 8.079 232.765 o
0 -10 9 29.046 20.392 9.057 145.310 o
0 -10 10 3.150 4.646 9.477 165.874 o
0 -10 11 1.474 -7.433 10.915 128.280 o
0 -10 12 0.259 3.198 11.678 111.993 o
0 -9 1 570.936 585.348 12.529 6.808 o
0 -9 2 183.770 167.522 6.954 44.432 o
0 -9 3 403.362 492.130 11.678 10.917 o
0 -9 4 293.776 305.721 9.732 19.997 o
0 -9 5 1681.820 1599.620 22.476 0.996 o
0 -9 6 1701.770 1700.390 24.540 0.940 o
0 -9 7 298.076 287.862 11.003 19.619 o
0 -9 8 300.646 334.163 12.539 17.372 o
0 -9 9 78.389 72.777 6.582 116.313 o
0 -9 10 19.566 10.886 9.399 149.716 o
0 -9 11 28.367 15.864 11.072 106.534 o
0 -9 12 16.141 8.235 11.903 100.451 o
0 -8 1 45.510 24.334 3.276 319.664 o
0 -8 2 13.820 13.448 4.480 485.374 o
0 -8 3 353.804 266.042 8.245 18.170 o
0 -8 4 32.309 28.207 3.883 349.583 o
0 -8 5 1632.250 1535.630 21.351 1.063 o
0 -8 6 666.404 669.285 15.033 5.183 o
0 -8 7 18.101 14.006 6.954 244.873 o
0 -8 8 19.319 14.730 7.511 213.983 o
0 -8 9 0.117 -0.528 7.815 251.632 o
0 -8 10 5.091 6.093 8.969 181.350 o
0 -8 11 29.483 37.313 5.741 243.595 o
0 -8 12 11.463 11.228 11.688 105.259 o
0 -7 1 54.279 32.961 3.286 261.979 o
0 -7 2 71.264 53.529 4.010 174.033 o
0 -7 3 723.994 665.060 12.079 4.853 o
0 -7 4 2261.550 2110.690 22.417 0.578 o
0 -7 5 449.639 385.384 10.504 11.319 o
0 -7 6 929.745 882.942 16.461 2.986 o
0 -7 7 50.908 53.676 5.086 192.960 o
0 -7 8 74.028 62.097 5.506 140.519 o
0 -7 9 1.022 1.115 7.551 265.948 o
0 -7 10 6.262 3.462 8.900 184.181 o
0 -7 11 3.777 -0.587 10.358 140.763 o
0 -7 12 2.945 3.492 11.306 118.032 o
0 -6 1 3.346 8.079 3.580 916.812 o
0 -6 2 2479.640 2276.930 19.904 0.492 o
0 -6 3 9374.780 9168.290 41.509 0.035 o
0 -6 4 9092.990 8267.080 42.047 0.039 o
0 -6 5 3074.170 2944.600 27.161 0.314 o
0 -6 6 303.801 311.639 9.693 19.197 o
0 -6 7 175.230 181.342 8.040 42.764 o
0 -6 8 61.079 63.838 5.506 157.154 o
0 -6 9 95.269 85.169 6.837 95.787 o
0 -6 10 130.218 116.731 8.646 61.113 o
0 -6 11 144.890 139.794 10.133 48.574 o
0 -6 12 75.400 64.307 7.981 105.867 o
0 -5 1 1692.830 1511.600 14.407 1.041 o
0 -5 2 1048.630 935.161 11.971 2.552 o
0 -5 3 2987.560 2626.950 20.999 0.352 o
0 -5 4 1330.860 1209.180 15.561 1.610 o
0 -5 5 143.271 108.926 5.360 70.473 o
0 -5 6 42.846 32.247 3.599 299.582 o
0 -5 7 189.896 192.335 8.147 38.786 o
0 -5 8 94.570 87.566 6.211 100.546 o
0 -5 9 124.272 123.587 8.167 64.028 o
0 -5 10 132.567 139.774 9.164 54.903 o
0 -5 11 56.437 43.162 6.084 168.858 o
0 -5 12 15.501 5.859 11.424 109.215 o
0 -4 1 420.097 517.344 7.805 10.718 o
0 -4 2 16992.100 18196.800 123.382 0.010 o
0 -4 3 1591.080 1392.750 14.563 1.183 o
0 -4 4 2217.720 2047.130 19.346 0.607 o
0 -4 5 259.610 226.391 7.345 27.667 o
0 -4 6 23.837 14.534 4.959 358.406 o
0 -4 7 1.332 -2.113 5.731 458.539 o
0 -4 8 5.248 1.076 6.455 343.703 o
0 -4 9 42.770 22.613 4.079 300.118 o
0 -4 10 82.404 77.638 7.756 98.729 o
0 -4 11 7.489 6.162 9.888 148.587 o
0 -4 12 2.273 1.956 10.827 129.326 o
0 -3 1 16284.500 18328.200 101.982 0.011 o
0 -3 2 33578.100 37355.000 162.485 0.003 o
0 -3 3 8305.950 7387.740 31.249 0.047 o
0 -3 4 2392.090 2238.960 19.581 0.521 o
0 -3 5 761.579 725.700 12.451 4.342 o
0 -3 6 290.315 303.785 8.969 20.677 o
0 -3 7 636.211 610.465 13.879 5.812 o
0 -3 8 705.643 713.327 16.647 4.618 o
0 -3 9 378.991 380.817 13.566 12.831 o
0 -3 10 367.333 410.022 15.111 12.284 o
0 -3 11 13.578 4.460 9.976 142.029 o
0 -3 12 0.051 1.369 10.788 131.737 o
0 -2 1 4626.220 4004.840 15.375 0.152 o
0 -2 2 6274.900 5673.830 22.143 0.081 o
0 -2 3 683.758 610.807 8.949 5.567 o
0 -2 4 716.835 669.813 10.534 4.946 o
0 -2 5 183.266 188.853 6.475 43.048 o
0 -2 6 161.036 122.512 5.888 59.196 o
0 -2 7 409.063 416.614 11.668 11.813 o
0 -2 8 251.253 257.405 10.534 24.470 o
0 -2 9 145.826 134.023 8.441 54.471 o
0 -2 10 77.665 48.091 5.878 139.326 o
0 -2 11 0.710 -5.164 9.859 157.659 o
0 -2 12 0.276 1.526 10.866 129.679 o
0 -1 2 3159.490 2928.230 15.346 0.308 o
0 -1 3 1496.020 1336.050 12.910 1.318 o
0 -1 4 307.084 305.888 7.287 20.200 o
0 -1 5 297.055 295.364 7.991 20.967 o
0 -1 6 3.229 2.670 4.616 648.151 o
0 -1 7 104.441 107.117 6.465 85.773 o
0 -1 8 307.501 303.501 11.414 18.385 o
0 -1 9 52.617 55.896 6.250 161.296 o
0 -1 10 13.117 7.414 8.832 176.032 o
0 -1 11 4.928 2.426 9.839 153.684 o
0 -1 12 3.598 3.453 11.160 120.767 o
0 0 2 13377.900 15339.300 93.825 0.015 o
0 0 3 203.009 228.474 5.829 36.441 o
0 0 4 1.601 1.399 3.257 1301.800 o
0 0 5 2086.610 2047.280 21.243 0.654 o
0 0 6 1667.220 1747.290 22.006 0.955 o
0 0 7 2224.580 2314.840 28.373 0.551 o
0 0 8 972.731 1047.710 20.784 2.491 o
0 0 9 191.873 206.791 10.426 33.765 o
0 0 10 5.915 5.086 8.871 184.763 o
0 0 11 3.016 3.629 9.947 151.542 o
0 0 12 22.397 23.121 12.108 92.199 o
0 1 1 59.487 68.894 2.347 208.024 o
0 1 2 3307.460 3376.360 17.791 0.264 o
0 1 3 465.620 438.512 7.952 10.542 o
0 1 4 686.581 692.094 11.277 5.080 o
0 1 5 1737.640 1822.360 20.490 0.887 o
0 1 6 912.000 942.115 16.431 2.942 o
0 1 7 205.650 191.201 8.705 35.471 o
0 1 8 169.828 174.603 9.116 42.326 o
0 1 9 0.146 -0.890 7.805 252.200 o
0 1 10 4.497 0.372 8.871 189.483 o
0 1 11 1.005 2.250 10.250 144.867 o
0 1 12 9.270 7.746 12.020 101.392 o
0 2 0 2243.290 2126.470 10.759 0.590 o
0 2 1 187.674 174.887 4.333 46.658 o
0 2 2 83.674 114.139 4.470 112.184 o
0 2 3 2.100 1.418 3.423 1165.520 o
0 2 4 97.819 104.437 4.841 101.599 o
0 2 5 765.176 692.348 13.145 4.410 o
0 2 6 920.286 988.563 17.546 2.808 o
0 2 7 690.166 768.323 16.695 4.530 o
0 2 8 14.482 15.659 7.482 223.920 o
0 2 9 38.419 35.552 4.597 268.117 o
0 2 10 2.234 2.064 9.135 180.601 o
0 2 11 3.773 2.787 10.690 131.441 o
0 2 12 6.320 -0.323 12.509 96.223 o
0 3 0 8554.080 8137.520 68.171 0.042 o
0 3 1 18.851 18.211 3.003 608.111 o
0 3 2 414.796 405.493 7.619 12.561 o
0 3 3 1003.850 888.370 12.353 2.770 o
0 3 4 3713.920 3541.070 27.660 0.219 o
0 3 5 4820.990 5002.610 36.442 0.124 o
0 3 6 2072.780 2198.220 26.691 0.624 o
0 3 7 489.377 557.053 14.857 7.982 o
0 3 8 0.481 0.743 7.238 291.174 o
0 3 9 5.731 4.626 8.402 205.330 o
0 3 10 61.935 62.146 7.003 131.913 o
0 3 11 58.380 57.138 7.492 130.217 o
0 4 0 0.483 3.384 3.413 1202.340 o
0 4 1 1.034 -2.005 3.286 1356.470 o
0 4 2 1957.430 1787.570 16.852 0.777 o
0 4 3 1987.580 1883.780 19.023 0.736 o
0 4 4 1344.140 1298.990 17.615 1.515 o
0 4 5 381.489 342.262 10.358 14.354 o
0 4 6 14.335 8.578 6.621 283.267 o
0 4 7 35.702 24.715 3.912 338.577 o
0 4 8 7.764 -0.665 7.756 239.118 o
0 4 9 14.223 7.404 9.018 168.373 o
0 4 10 61.550 57.148 6.993 135.168 o
0 4 11 9.578 2.582 12.011 102.432 o
0 5 0 861.020 929.204 11.629 3.259 o
0 5 1 136.479 167.033 5.575 60.843 o
0 5 2 564.085 488.745 9.663 7.838 o
0 5 3 702.262 613.780 11.883 5.262 o
0 5 4 1657.160 1621.720 20.881 1.011 o
0 5 5 1598.460 1586.790 22.358 1.066 o
0 5 6 0.450 0.597 6.250 389.915 o
0 5 7 30.297 20.177 7.541 188.754 o
0 5 8 6.120 2.426 8.137 219.268 o
0 5 9 20.414 14.857 9.869 135.413 o
0 5 10 25.680 23.483 11.610 97.754 o
0 5 11 26.724 16.265 13.037 80.617 o
0 6 0 18.323 2.240 3.619 639.584 o
0 6 1 486.589 388.739 8.734 10.548 o
0 6 2 3170.710 2841.890 24.657 0.309 o
0 6 3 4243.950 4008.890 31.787 0.169 o
0 6 4 2242.190 2295.400 26.241 0.551 o
0 6 5 1551.740 1677.210 23.718 1.063 o
0 6 6 40.053 14.583 6.983 196.277 o
0 6 7 157.537 157.663 8.685 47.734 o
0 6 8 92.230 101.200 7.824 85.099 o
0 6 9 152.747 157.418 10.651 43.623 o
0 6 10 126.212 127.656 10.543 53.025 o
0 7 0 605.122 565.005 10.759 6.619 o
0 7 1 1939.120 1881.230 20.578 0.758 o
0 7 2 598.744 550.119 11.913 6.721 o
0 7 3 492.035 530.254 12.402 8.459 o
0 7 4 73.461 73.667 6.005 127.742 o
0 7 5 3.759 4.900 6.436 343.865 o
0 7 6 0.128 -0.391 6.895 323.074 o
0 7 7 5.041 2.406 8.020 227.357 o
0 7 8 85.880 76.083 7.541 98.997 o
0 7 9 30.299 20.979 11.619 96.187 o
0 7 10 7.718 6.837 12.059 101.533 o
0 8 0 345.357 327.835 9.057 16.686 o
0 8 1 616.961 567.323 12.226 6.367 o
0 8 2 1996.910 1881.890 23.728 0.725 o
0 8 3 1188.390 1187.270 19.542 1.843 o
0 8 4 208.062 233.462 9.438 31.272 o
0 8 5 3.125 5.790 6.768 313.791 o
0 8 6 1.460 -0.939 7.668 258.254 o
0 8 7 38.728 28.227 9.477 124.547 o
0 8 8 20.157 14.945 10.406 123.687 o
0 8 9 49.327 34.526 12.685 74.890 o
0 8 10 32.136 30.975 13.507 72.474 o
0 9 0 2179.220 2059.240 23.708 0.614 o
0 9 1 3128.070 3092.430 30.085 0.297 o
0 9 2 1754.830 1778.790 23.953 0.882 o
0 9 3 1440.680 1564.720 23.943 1.213 o
0 9 4 5.955 1.712 6.504 334.763 o
0 9 5 10.898 6.719 7.511 239.257 o
0 9 6 194.571 216.395 10.749 32.299 o
0 9 7 250.137 303.726 13.331 20.646 o
0 9 8 204.484 236.944 12.842 27.267 o
0 9 9 107.850 94.686 10.152 64.849 o
0 10 0 161.920 159.247 8.235 47.651 o
0 10 1 23.811 17.214 7.013 224.968 o
0 10 2 14.155 9.966 6.817 268.721 o
0 10 3 14.509 12.636 6.915 258.030 o
0 10 4 38.410 22.368 7.922 163.607 o
0 10 5 80.810 63.134 6.387 120.878 o
0 10 6 122.747 119.636 8.754 62.659 o
0 10 7 49.402 37.518 6.250 181.343 o
0 10 8 10.022 4.245 11.756 106.190 o
0 10 9 0.255 -2.073 12.969 91.382 o
0 11 0 1292.450 1323.400 21.801 1.545 o
0 11 1 570.431 590.767 15.052 6.578 o
0 11 2 72.820 54.683 5.594 145.594 o
0 11 3 39.660 11.893 7.629 177.747 o
0 11 4 0.748 -2.621 8.157 229.835 o
0 11 5 23.754 21.498 9.546 137.692 o
0 11 6 70.125 57.451 7.199 123.145 o
0 11 7 124.421 123.578 10.074 55.889 o
0 11 8 46.162 34.437 13.008 72.869 o
0 12 0 761.127 813.070 18.035 3.890 o
0 12 1 491.545 567.450 15.541 7.780 o
0 12 2 67.446 70.039 6.064 135.695 o
0 12 3 23.602 25.116 8.617 160.296 o
0 12 4 222.826 242.148 11.619 26.702 o
0 12 5 311.222 346.066 14.642 15.599 o
0 12 6 210.375 246.167 13.204 25.883 o
0 12 7 97.016 106.207 9.585 69.941 o
0 13 0 23.121 17.585 7.952 187.379 o
0 13 1 63.175 59.261 6.230 144.849 o
0 13 2 28.865 16.001 8.538 161.748 o
0 13 3 5.277 1.203 9.027 181.757 o
0 13 4 53.497 43.504 6.084 173.391 o
0 13 5 21.396 14.573 11.355 105.582 o
0 13 6 5.313 5.242 11.580 111.168 o
0 13 7 0.155 -2.308 12.783 94.086 o
0 14 0 69.479 61.129 6.260 135.620 o
0 14 1 0.189 0.469 8.450 214.744 o
0 14 2 21.984 26.378 9.693 133.771 o
0 14 3 5.539 3.521 9.800 153.885 o
0 14 4 61.027 55.759 7.551 127.345 o
0 14 5 84.179 87.526 9.057 83.202 o
0 14 6 54.354 50.673 7.590 135.951 o
0 15 0 8.879 11.081 9.106 169.262 o
0 15 1 0.597 3.511 9.321 174.570 o
0 15 2 62.326 69.080 7.463 121.225 o
0 15 3 140.957 177.654 11.228 42.415 o
0 15 4 174.500 190.271 12.089 34.368 o
0 15 5 89.046 82.519 9.605 77.813 o
0 16 0 0.723 -0.929 9.771 160.490 o
0 16 1 1.263 2.611 10.240 144.822 o
0 16 2 23.302 16.842 11.199 106.710 o
0 16 3 36.086 33.430 12.715 78.755 o
0 16 4 2.666 -3.951 12.852 92.348 o
0 17 0 3.324 2.582 10.905 126.733 o
0 17 1 21.650 21.400 12.050 93.596 o
0 17 2 44.701 40.042 13.409 69.050 o
0 17 3 60.959 55.965 8.597 111.690 o
0 18 0 30.104 33.557 12.891 78.706 o
0 18 1 69.492 74.665 8.891 96.188 o
1 -19 0 38.081 36.394 13.536 70.067 o
1 -19 1 4.079 -1.369 12.294 100.337 o
1 -19 2 0.542 0.215 11.844 109.384 o
1 -19 3 25.798 11.756 12.392 89.293 o
1 -19 4 26.878 14.329 12.715 84.542 o
1 -19 5 18.403 13.429 12.656 88.078 o
1 -19 6 18.305 18.916 12.969 83.440 o
1 -18 0 0.716 -2.993 11.512 115.748 o
1 -18 1 5.186 1.359 10.935 125.369 o
1 -18 2 2.029 -0.039 11.101 123.755 o
1 -18 3 10.832 6.573 11.463 110.517 o
1 -18 4 35.438 33.137 11.922 87.797 o
1 -18 5 13.109 18.065 11.737 102.305 o
1 -18 6 5.703 3.521 11.893 105.753 o
1 -18 7 0.070 3.218 11.854 108.786 o
1 -17 0 38.784 30.662 11.600 90.910 o
1 -17 1 23.018 20.099 10.563 117.236 o
1 -17 2 61.340 37.420 5.956 168.417 o
1 -17 3 61.064 51.818 6.866 140.912 o
1 -17 4 42.546 26.633 11.023 97.675 o
1 -17 5 124.524 137.212 10.455 52.593 o
1 -17 6 41.496 40.179 6.533 185.023 o
1 -17 7 27.791 32.520 12.030 89.460 o
1 -17 8 4.114 2.885 11.776 108.609 o
1 -16 0 12.545 -0.323 9.829 148.628 o
1 -16 1 95.733 92.025 7.961 84.671 o
1 -16 2 260.194 305.223 13.302 19.992 o
1 -16 3 230.030 271.871 12.764 23.659 o
1 -16 4 203.123 202.683 11.248 31.368 o
1 -16 5 73.857 63.398 7.101 118.289 o
1 -16 6 23.007 21.263 10.446 119.129 o
1 -16 7 10.379 14.074 10.534 127.449 o
1 -16 8 13.484 13.566 11.365 109.389 o
1 -16 9 44.451 37.978 13.037 72.590 o
1 -15 0 15.512 4.489 9.008 168.885 o
1 -15 1 119.721 124.468 8.861 62.383 o
1 -15 2 72.344 81.502 7.531 106.886 o
1 -15 3 0.292 3.472 8.578 206.089 o
1 -15 4 1.014 -4.274 9.145 182.778 o
1 -15 5 41.667 24.295 9.634 120.899 o
1 -15 6 3.090 -1.076 9.370 172.019 o
1 -15 7 2.104 -3.052 9.732 160.549 o
1 -15 8 0.897 1.350 10.651 134.615 o
1 -15 9 5.260 5.086 11.531 112.143 o
1 -15 10 18.239 14.055 12.558 89.290 o
1 -14 0 119.744 118.482 8.538 64.893 o
1 -14 1 420.322 435.617 14.583 10.629 o
1 -14 2 386.737 400.094 14.104 12.137 o
1 -14 3 421.879 474.123 14.964 10.059 o
1 -14 4 200.057 242.754 11.003 29.735 o
1 -14 5 33.286 29.576 4.744 292.220 o
1 -14 6 7.586 4.088 8.646 192.349 o
1 -14 7 35.101 21.185 9.702 125.530 o
1 -14 8 87.815 72.836 7.776 96.556 o
1 -14 9 42.142 30.946 11.776 87.396 o
1 -14 10 22.034 17.282 12.099 93.553 o
1 -13 0 784.404 859.518 19.317 3.601 o
1 -13 1 1315.140 1474.120 24.960 1.395 o
1 -13 2 343.961 377.022 12.715 14.415 o
1 -13 3 305.751 285.710 11.081 19.174 o
1 -13 4 104.922 99.928 7.130 83.327 o
1 -13 5 67.185 55.925 5.907 147.238 o
1 -13 6 143.033 134.728 8.568 54.742 o
1 -13 7 353.369 403.674 14.622 12.971 o
1 -13 8 369.478 418.580 15.884 11.870 o
1 -13 9 112.064 127.020 9.507 61.515 o
1 -13 10 30.343 22.750 11.874 92.359 o
1 -13 11 1.769 3.560 11.971 105.946 o
1 -12 0 210.594 216.523 9.820 31.542 o
1 -12 1 6.555 2.328 6.905 296.790 o
1 -12 2 24.039 21.596 4.245 396.091 o
1 -12 3 22.294 20.862 7.169 217.268 o
1 -12 4 12.017 4.802 6.719 289.622 o
1 -12 5 0.197 2.162 7.130 298.650 o
1 -12 6 35.611 28.139 5.096 268.511 o
1 -12 7 31.295 39.416 5.839 231.665 o
1 -12 8 49.757 45.401 6.220 174.733 o
1 -12 9 1.384 1.721 9.712 161.063 o
1 -12 10 11.154 7.942 10.641 126.484 o
1 -12 11 0.059 -2.533 11.629 113.718 o
1 -11 0 886.063 878.912 17.419 3.147 o
1 -11 1 1632.210 1684.320 23.552 0.998 o
1 -11 2 988.912 1071.030 18.691 2.444 o
1 -11 3 250.073 246.295 9.595 25.853 o
1 -11 4 110.546 118.140 7.062 76.192 o
1 -11 5 125.872 92.133 6.817 76.354 o
1 -11 6 514.845 549.473 15.346 7.585 o
1 -11 7 435.679 443.647 14.544 10.175 o
1 -11 8 143.302 168.480 9.624 47.218 o
1 -11 9 69.130 66.508 6.944 123.325 o
1 -11 10 41.384 32.706 11.111 95.613 o
1 -11 11 1.008 3.629 10.925 127.295 o
1 -11 12 3.755 -0.352 12.773 93.144 o
1 -10 0 1463.200 1456.550 20.784 1.259 o
1 -10 1 1362.910 1283.700 19.180 1.491 o
1 -10 2 4.956 8.607 5.242 473.433 o
1 -10 3 235.572 246.969 8.939 27.842 o
1 -10 4 365.576 345.528 10.847 14.790 o
1 -10 5 818.888 881.309 17.585 3.433 o
1 -10 6 2277.550 2394.520 30.779 0.521 o
1 -10 7 280.278 297.251 11.580 20.108 o
1 -10 8 132.630 124.028 8.225 60.822 o
1 -10 9 17.437 17.840 9.272 151.962 o
1 -10 10 0.745 0.626 9.595 166.093 o
1 -10 11 11.283 7.228 10.984 119.351 o
1 -10 12 5.649 1.966 12.128 102.116 o
1 -9 0 294.379 328.774 9.585 19.299 o
1 -9 1 152.880 144.215 6.455 56.776 o
1 -9 2 26.395 13.800 4.871 353.569 o
1 -9 3 68.683 81.736 5.409 136.299 o
1 -9 4 244.390 242.959 8.842 27.214 o
1 -9 5 314.261 324.666 10.671 17.777 o
1 -9 6 364.712 387.526 12.392 13.548 o
1 -9 7 28.804 29.616 4.294 339.232 o
1 -9 8 3.356 8.225 7.658 245.496 o
1 -9 9 1.029 1.995 8.255 222.269 o
1 -9 10 1.108 -2.181 9.546 167.741 o
1 -9 11 2.091 1.663 10.543 136.483 o
1 -9 12 0.710 0.489 11.835 109.440 o
1 -8 0 1971.000 1848.650 20.588 0.750 o
1 -8 1 1599.050 1736.430 19.698 1.014 o
1 -8 2 66.272 52.082 3.834 188.460 o
1 -8 3 1107.220 1038.830 15.796 2.210 o
1 -8 4 1615.310 1575.180 20.617 1.063 o
1 -8 5 1023.640 915.756 16.539 2.603 o
1 -8 6 1600.350 1665.210 23.542 1.030 o
1 -8 7 160.521 172.882 8.607 45.542 o
1 -8 8 446.021 493.235 14.671 9.386 o
1 -8 9 40.416 32.501 4.802 257.810 o
1 -8 10 7.961 2.025 9.292 168.701 o
1 -8 11 15.624 10.905 10.690 121.858 o
1 -8 12 9.195 9.321 11.903 103.018 o
1 -7 0 374.641 399.331 8.959 13.857 o
1 -7 1 1.462 3.726 3.746 974.352 o
1 -7 2 744.339 696.309 11.746 4.589 o
1 -7 3 1798.320 1625.530 18.730 0.915 o
1 -7 4 6432.640 6179.860 38.584 0.074 o
1 -7 5 2879.300 2851.690 28.246 0.349 o
1 -7 6 466.022 455.002 12.245 9.755 o
1 -7 7 13.124 11.590 6.739 274.441 o
1 -7 8 6.313 1.496 7.101 283.781 o
1 -7 9 2.492 1.633 8.167 224.748 o
1 -7 10 30.724 30.163 5.213 276.355 o
1 -7 11 44.487 35.992 5.898 202.534 o
1 -7 12 38.766 31.484 12.500 80.457 o
1 -6 0 1.126 1.252 3.492 1173.330 o
1 -6 1 340.776 331.581 7.551 17.297 o
1 -6 2 2892.410 2832.300 21.879 0.351 o
1 -6 3 809.061 805.480 12.529 3.806 o
1 -6 4 1368.040 1450.560 18.104 1.382 o
1 -6 5 76.423 82.578 5.115 130.220 o
1 -6 6 391.459 375.574 10.680 13.271 o
1 -6 7 7.798 5.546 6.152 352.844 o
1 -6 8 0.480 0.978 6.749 334.035 o
1 -6 9 2.776 -0.078 7.805 246.596 o
1 -6 10 29.272 13.321 9.536 136.736 o
1 -6 11 1.262 -2.543 10.485 139.091 o
1 -6 12 0.613 -5.663 11.629 113.475 o
1 -5 0 54.194 38.086 3.423 249.249 o
1 -5 1 2976.630 2435.750 17.967 0.371 o
1 -5 2 3313.170 3187.960 21.547 0.273 o
1 -5 3 6844.910 6121.430 32.237 0.069 o
1 -5 4 2178.190 1951.940 19.933 0.639 o
1 -5 5 841.763 780.021 13.673 3.671 o
1 -5 6 546.079 595.207 13.223 7.019 o
1 -5 7 53.252 55.788 4.969 188.729 o
1 -5 8 63.535 59.055 5.506 157.057 o
1 -5 9 56.565 51.622 5.692 170.335 o
1 -5 10 92.884 80.123 7.629 92.359 o
1 -5 11 67.766 53.363 6.895 132.080 o
1 -5 12 11.051 9.252 11.610 107.205 o
1 -4 0 510.382 514.390 7.864 8.705 o
1 -4 1 5834.490 5181.080 23.561 0.095 o
1 -4 2 10349.800 9216.660 33.851 0.030 o
1 -4 3 5218.080 5082.180 27.757 0.111 o
1 -4 4 1865.930 1657.650 17.752 0.864 o
1 -4 5 6.558 5.154 4.176 687.316 o
1 -4 6 274.630 269.543 8.803 23.236 o
1 -4 7 68.294 70.303 5.272 146.031 o
1 -4 8 317.488 305.673 11.306 17.828 o
1 -4 9 177.407 186.408 9.820 38.500 o
1 -4 10 183.524 188.286 10.632 35.907 o
1 -4 11 44.233 33.821 5.516 218.094 o
1 -4 12 0.112 -0.812 11.218 122.169 o
1 -3 0 6288.150 5604.060 21.018 0.082 o
1 -3 1 1033.210 1006.640 9.634 2.511 o
1 -3 2 2067.650 2223.580 15.727 0.633 o
1 -3 3 807.835 824.914 11.081 3.791 o
1 -3 4 865.710 745.124 11.668 3.681 o
1 -3 5 114.240 112.359 5.399 84.428 o
1 -3 6 37.086 38.790 3.893 298.034 o
1 -3 7 0.040 0.293 5.771 460.598 o
1 -3 8 8.165 3.814 6.974 284.350 o
1 -3 9 0.105 -3.130 7.912 245.478 o
1 -3 10 1.852 2.426 8.949 188.267 o
1 -3 11 6.582 6.113 10.123 142.832 o
1 -3 12 1.611 -0.235 11.512 115.340 o
1 -2 0 2650.070 2454.490 11.659 0.434 o
1 -2 1 6930.030 7628.090 59.955 0.058 o
1 -2 2 82.622 47.612 3.394 167.195 o
1 -2 3 787.341 648.091 9.556 4.515 o
1 -2 4 1728.280 1957.710 18.681 0.855 o
1 -2 5 454.943 503.602 10.661 9.684 o
1 -2 6 361.849 367.496 10.279 14.659 o
1 -2 7 268.481 278.952 9.908 22.644 o
1 -2 8 380.340 410.344 13.116 12.440 o
1 -2 9 167.195 203.730 10.201 38.027 o
1 -2 10 47.248 33.860 5.125 223.615 o
1 -2 11 22.249 18.622 10.768 114.291 o
1 -2 12 2.418 2.171 11.365 117.409 o
1 -1 1 13411.200 15663.700 80.494 0.015 o
1 -1 2 3636.090 3485.320 18.348 0.229 o
1 -1 3 1087.710 1095.860 12.539 2.217 o
1 -1 4 281.299 256.799 7.013 24.248 o
1 -1 5 425.870 370.537 9.331 12.477 o
1 -1 6 375.524 348.805 10.143 14.521 o
1 -1 7 709.419 703.889 15.629 4.671 o
1 -1 8 277.808 301.741 11.649 20.080 o
1 -1 9 248.711 244.622 11.512 24.390 o
1 -1 10 4.297 -0.068 9.135 179.434 o
1 -1 11 1.591 3.091 10.201 145.504 o
1 -1 12 12.423 7.844 11.913 101.862 o
1 0 1 5.065 12.216 1.946 1557.080 o
1 0 2 2583.970 2486.810 15.991 0.443 o
1 0 3 3739.340 3752.550 23.180 0.210 o
1 0 4 57.958 81.942 4.323 167.459 o
1 0 5 99.237 133.965 5.947 84.016 o
1 0 6 17.695 15.502 5.594 334.582 o
1 0 7 15.193 6.377 6.758 274.737 o
1 0 8 12.786 6.651 7.306 246.756 o
1 0 9 4.112 3.120 8.089 224.731 o
1 0 10 25.062 15.434 9.565 138.660 o
1 0 11 5.817 4.890 10.563 132.573 o
1 0 12 0.253 1.985 11.942 107.369 o
1 1 1 75.997 90.001 3.492 142.957 o
1 1 2 269.841 275.930 6.142 24.870 o
1 1 3 2016.400 2134.510 18.260 0.668 o
1 1 4 517.627 445.828 9.526 9.094 o
1 1 5 1376.030 1487.160 19.698 1.344 o
1 1 6 1515.140 1581.750 22.045 1.142 o
1 1 7 608.201 668.835 15.737 5.682 o
1 1 8 253.805 281.720 11.580 22.466 o
1 1 9 86.786 101.219 7.746 88.742 o
1 1 10 18.742 17.820 9.937 133.958 o
1 1 11 21.835 16.353 11.228 107.057 o
1 1 12 5.982 5.956 12.294 98.612 o
1 2 0 1090.050 1088.030 9.409 2.243 o
1 2 1 561.030 474.202 7.433 8.172 o
1 2 2 2991.440 2972.560 19.855 0.326 o
1 2 3 1266.710 1106.200 14.074 1.813 o
1 2 4 1266.470 1259.520 16.842 1.665 o
1 2 5 1013.490 959.446 16.128 2.573 o
1 2 6 618.515 694.754 15.091 5.497 o
1 2 7 291.288 336.785 11.678 18.228 o
1 2 8 9.077 6.318 7.570 240.324 o
1 2 9 0.817 3.140 8.509 208.829 o
1 2 10 3.219 -0.235 9.888 154.637 o
1 2 11 24.135 20.128 11.932 94.504 o
1 3 0 881.869 845.844 9.771 3.382 o
1 3 1 1813.840 1729.980 14.769 0.878 o
1 3 2 16.177 10.103 3.423 647.303 o
1 3 3 639.951 693.257 11.746 5.477 o
1 3 4 342.388 377.491 9.644 15.466 o
1 3 5 46.659 43.377 4.597 229.420 o
1 3 6 352.545 351.592 11.228 15.086 o
1 3 7 0.055 0.372 6.719 339.761 o
1 3 8 68.350 60.200 5.673 146.652 o
1 3 9 9.676 7.150 9.037 172.919 o
1 3 10 5.138 2.582 10.387 138.173 o
1 3 11 0.683 -1.076 11.903 108.298 o
1 4 0 2231.330 2060.940 16.422 0.602 o
1 4 1 3718.270 3600.240 23.151 0.217 o
1 4 2 3354.640 3297.940 24.187 0.262 o
1 4 3 3348.830 3633.760 27.914 0.246 o
1 4 4 2697.430 2699.090 26.691 0.393 o
1 4 5 1833.540 2085.280 25.537 0.751 o
1 4 6 392.373 401.170 12.578 12.345 o
1 4 7 103.721 114.032 7.326 79.059 o
1 4 8 54.140 55.994 6.025 163.657 o
1 4 9 42.136 43.837 5.829 201.328 o
1 4 10 34.587 34.760 11.815 89.111 o
1 4 11 26.401 17.908 12.695 84.362 o
1 5 0 2275.600 2196.570 18.749 0.563 o
1 5 1 1568.010 1475.050 16.353 1.161 o
1 5 2 1750.340 1633.310 18.456 0.945 o
1 5 3 516.842 469.341 10.905 8.732 o
1 5 4 598.078 577.172 13.067 6.478 o
1 5 5 240.300 255.410 9.732 26.234 o
1 5 6 5.760 5.428 6.729 308.581 o
1 5 7 30.013 29.068 4.499 321.673 o
1 5 8 12.746 8.793 8.900 173.249 o
1 5 9 66.122 62.244 7.296 123.261 o
1 5 10 38.683 29.645 12.148 84.635 o
1 6 0 1090.090 1146.980 15.170 2.128 o
1 6 1 41.098 38.242 3.658 291.592 o
1 6 2 1199.880 1233.660 17.008 1.799 o
1 6 3 220.046 217.814 8.069 32.309 o
1 6 4 101.709 83.477 5.751 100.327 o
1 6 5 133.801 127.333 7.355 63.231 o
1 6 6 0.188 -0.401 7.042 309.578 o
1 6 7 66.788 58.400 6.220 141.043 o
1 6 8 3.619 -0.117 9.585 164.018 o
1 6 9 1.170 -0.968 10.358 142.570 o
1 6 10 5.073 2.445 11.932 105.543 o
1 7 0 1263.010 1157.930 15.952 1.761 o
1 7 1 3237.970 3223.740 28.021 0.277 o
1 7 2 2512.030 2469.320 25.919 0.456 o
1 7 3 1573.880 1645.660 22.486 1.062 o
1 7 4 1014.500 1130.660 19.864 2.279 o
1 7 5 196.411 195.015 9.233 35.802 o
1 7 6 146.371 177.302 9.380 46.236 o
1 7 7 139.853 143.647 9.380 51.718 o
1 7 8 64.490 71.281 7.257 121.130 o
1 7 9 38.566 29.479 12.167 84.485 o
1 7 10 41.357 29.400 13.546 70.037 o
1 8 0 1473.460 1416.790 19.180 1.276 o
1 8 1 1025.840 1056.890 17.165 2.382 o
1 8 2 572.747 566.550 13.536 6.828 o
1 8 3 269.406 300.714 10.495 21.392 o
1 8 4 199.093 210.547 9.350 34.098 o
1 8 5 4.815 2.377 7.267 274.622 o
1 8 6 46.573 43.093 5.379 206.010 o
1 8 7 54.626 57.480 6.592 150.454 o
1 8 8 41.311 37.499 5.741 213.025 o
1 8 9 44.841 27.767 12.773 76.392 o
1 9 0 438.584 418.941 11.482 10.989 o
1 9 1 418.657 416.976 11.815 11.500 o
1 9 2 207.963 197.382 8.803 34.531 o
1 9 3 255.721 257.347 10.299 24.279 o
1 9 4 76.732 69.520 6.054 125.860 o
1 9 5 111.312 97.082 7.531 78.270 o
1 9 6 15.417 7.179 9.399 155.322 o
1 9 7 0.292 -1.956 10.054 151.933 o
1 9 8 4.286 4.763 10.964 124.273 o
1 9 9 2.483 -1.917 12.588 96.287 o
1 10 0 1839.990 1934.830 25.586 0.785 o
1 10 1 1245.020 1281.770 21.605 1.649 o
1 10 2 763.519 871.264 18.241 3.712 o
1 10 3 296.900 303.051 11.580 18.918 o
1 10 4 69.926 63.124 6.250 134.113 o
1 10 5 135.293 143.872 9.145 53.665 o
1 10 6 90.822 113.044 8.705 76.697 o
1 10 7 76.353 74.753 7.864 102.767 o
1 10 8 62.440 42.360 7.169 139.326 o
1 11 0 225.896 219.946 9.761 29.578 o
1 11 1 135.637 127.324 7.815 60.846 o
1 11 2 149.867 148.802 8.568 51.006 o
1 11 3 0.749 1.144 7.854 246.615 o
1 11 4 60.672 64.904 6.573 138.735 o
1 11 5 94.228 107.860 8.499 77.695 o
1 11 6 83.069 95.273 8.832 83.655 o
1 11 7 38.103 31.611 12.089 85.159 o
1 11 8 25.080 10.377 13.174 80.389 o
1 12 0 256.762 227.946 10.397 25.399 o
1 12 1 100.334 79.859 6.837 94.180 o
1 12 2 24.740 16.510 8.353 172.162 o
1 12 3 157.586 148.753 9.487 46.619 o
1 12 4 24.128 12.676 9.869 133.412 o
1 12 5 14.563 8.294 10.436 128.809 o
1 12 6 8.968 1.330 11.297 115.803 o
1 12 7 11.197 7.912 12.343 95.693 o
1 13 0 278.080 342.340 13.018 18.085 o
1 13 1 348.828 408.897 14.475 13.082 o
1 13 2 153.677 172.285 10.191 43.194 o
1 13 3 151.947 170.877 10.377 43.196 o
1 13 4 108.854 129.290 9.644 61.530 o
1 13 5 44.124 35.523 12.040 82.857 o
1 13 6 63.215 54.488 7.316 129.560 o
1 14 0 63.945 74.548 7.218 120.668 o
1 14 1 22.171 13.077 9.458 144.821 o
1 14 2 3.034 5.262 9.781 155.882 o
1 14 3 26.612 23.434 10.974 107.100 o
1 14 4 47.296 46.164 6.631 167.980 o
1 14 5 26.281 17.595 12.382 88.252 o
1 15 0 39.989 25.919 10.328 109.530 o
1 15 1 99.339 108.516 8.617 74.505 o
1 15 2 39.198 31.141 5.321 242.409 o
1 15 3 0.893 -4.607 11.443 117.051 o
1 15 4 1.765 1.839 11.698 111.267 o
1 16 0 26.053 25.850 10.974 106.767 o
1 16 1 79.126 93.903 8.587 88.112 o
1 16 2 43.011 35.406 12.431 79.170 o
1 16 3 31.270 27.933 12.754 80.647 o
1 17 0 1.745 1.232 11.365 117.957 o
1 17 1 32.239 22.828 12.549 83.417 o
1 17 2 21.945 15.786 12.744 85.499 o
1 18 0 10.830 5.575 12.519 93.665 o
2 -19 0 20.047 13.683 12.480 89.774 o
2 -19 1 19.364 9.859 12.226 94.129 o
2 -19 2 31.325 21.058 12.284 87.118 o
2 -19 3 17.087 13.683 11.874 99.431 o
2 -19 4 0.360 -0.215 11.844 109.502 o
2 -19 5 0.780 1.956 11.932 107.342 o
2 -19 6 4.614 3.374 12.363 98.477 o
2 -18 0 103.309 100.300 9.252 70.674 o
2 -18 1 35.941 34.320 11.952 87.039 o
2 -18 2 86.414 95.224 8.773 82.470 o
2 -18 3 62.880 55.123 7.062 133.694 o
2 -18 4 22.127 21.429 11.394 103.021 o
2 -18 5 74.950 83.683 8.480 94.422 o
2 -18 6 68.068 70.821 8.382 104.051 o
2 -18 7 44.663 41.440 7.443 155.542 o
2 -17 0 2.370 -4.587 10.700 132.910 o
2 -17 1 0.593 1.692 9.927 154.900 o
2 -17 2 36.337 33.264 5.976 221.352 o
2 -17 3 69.609 72.093 7.834 109.021 o
2 -17 4 64.135 53.197 6.592 141.233 o
2 -17 5 38.630 32.442 11.453 92.451 o
2 -17 6 8.474 2.875 11.209 117.416 o
2 -17 7 0.017 -3.785 11.463 117.060 o
2 -17 8 0.358 -5.379 12.157 103.944 o
2 -16 0 154.512 167.199 10.191 43.524 o
2 -16 1 16.235 7.071 9.487 152.058 o
2 -16 2 1.549 -3.267 9.301 176.147 o
2 -16 3 0.228 -7.736 9.507 169.976 o
2 -16 4 28.791 16.216 9.839 129.231 o
2 -16 5 75.238 64.288 7.326 113.861 o
2 -16 6 44.682 25.498 10.739 100.853 o
2 -16 7 16.989 9.771 10.778 119.602 o
2 -16 8 0.049 2.533 10.974 127.008 o
2 -16 9 0.059 -3.081 11.971 107.308 o
2 -15 0 130.473 152.753 9.741 51.730 o
2 -15 1 319.217 411.088 14.329 14.129 o
2 -15 2 284.054 351.064 13.419 17.335 o
2 -15 3 276.602 335.777 13.497 18.068 o
2 -15 4 506.199 588.400 17.546 7.174 o
2 -15 5 188.334 206.938 10.984 33.353 o
2 -15 6 50.786 52.561 6.220 167.274 o
2 -15 7 3.569 7.922 9.869 151.649 o
2 -15 8 6.582 4.343 10.759 127.682 o
2 -15 9 5.757 5.370 11.492 112.591 o
2 -15 10 9.734 6.974 12.558 93.239 o
2 -14 0 117.992 130.913 8.304 64.362 o
2 -14 1 277.640 271.333 11.512 21.183 o
2 -14 2 108.974 115.616 7.785 73.583 o
2 -14 3 45.474 30.134 4.499 256.939 o
2 -14 4 25.258 20.060 8.499 164.762 o
2 -14 5 2.219 -4.039 8.509 209.082 o
2 -14 6 0.035 0.078 8.538 210.878 o
2 -14 7 6.686 3.844 9.292 169.080 o
2 -14 8 68.517 68.621 7.482 115.724 o
2 -14 9 43.433 33.635 6.015 203.529 o
2 -14 10 21.522 13.879 12.392 90.395 o
2 -13 0 49.965 46.712 5.536 190.582 o
2 -13 1 19.419 16.852 7.463 213.947 o
2 -13 2 291.034 308.176 11.590 19.107 o
2 -13 3 92.652 78.264 6.211 105.621 o
2 -13 4 151.306 153.301 8.499 50.265 o
2 -13 5 87.083 75.027 6.651 107.214 o
2 -13 6 1.068 -2.641 8.304 221.297 o
2 -13 7 6.256 5.203 8.714 190.550 o
2 -13 8 4.825 5.008 9.565 161.189 o
2 -13 9 0.416 -5.448 10.710 133.857 o
2 -13 10 40.554 32.100 12.382 81.013 o
2 -13 11 19.490 13.390 12.627 88.111 o
2 -12 0 685.819 769.155 17.008 4.543 o
2 -12 1 542.041 578.101 14.720 7.056 o
2 -12 2 1038.390 1071.100 19.864 2.294 o
2 -12 3 794.081 712.427 16.226 4.054 o
2 -12 4 465.020 497.704 14.084 9.052 o
2 -12 5 84.190 90.099 6.846 101.774 o
2 -12 6 36.262 34.516 4.910 263.828 o
2 -12 7 94.007 113.024 8.157 78.855 o
2 -12 8 59.024 64.425 6.719 138.490 o
2 -12 9 44.786 39.856 6.201 188.957 o
2 -12 10 58.002 58.194 7.013 138.189 o
2 -12 11 7.712 -0.949 12.206 100.449 o
2 -11 0 249.645 234.206 9.223 26.798 o
2 -11 1 160.780 139.569 7.238 53.010 o
2 -11 2 185.899 165.409 7.776 42.713 o
2 -11 3 54.581 41.528 4.861 203.965 o
2 -11 4 0.194 0.528 6.406 372.639 o
2 -11 5 51.330 25.068 4.460 247.454 o
2 -11 6 257.841 312.265 11.805 20.940 o
2 -11 7 24.190 20.402 8.167 176.375 o
2 -11 8 61.809 50.106 5.947 158.119 o
2 -11 9 0.100 4.372 9.409 171.430 o
2 -11 10 1.845 -0.166 10.299 143.711 o
2 -11 11 0.022 2.054 11.375 118.385 o
2 -10 0 298.327 264.398 9.233 21.362 o
2 -10 1 856.242 893.045 16.001 3.276 o
2 -10 2 448.282 399.869 11.023 11.066 o
2 -10 3 444.112 404.427 11.267 11.074 o
2 -10 4 183.536 170.661 7.844 42.534 o
2 -10 5 43.951 38.320 4.685 241.799 o
2 -10 6 3.584 4.333 6.866 306.376 o
2 -10 7 17.347 10.993 7.619 216.367 o
2 -10 8 75.326 73.178 7.081 112.991 o
2 -10 9 105.793 100.848 7.727 78.853 o
2 -10 10 32.793 18.877 10.553 112.035 o
2 -10 11 6.992 3.726 11.228 117.555 o
2 -10 12 0.976 1.281 12.353 100.249 o
2 -9 0 2408.850 2401.360 24.950 0.490 o
2 -9 1 2428.300 2319.060 24.363 0.496 o
2 -9 2 1011.770 811.612 14.397 2.849 o
2 -9 3 907.996 944.159 16.294 2.955 o
2 -9 4 374.177 387.409 10.915 13.620 o
2 -9 5 144.363 159.834 7.688 53.544 o
2 -9 6 511.455 536.074 14.289 7.862 o
2 -9 7 120.633 101.395 7.247 74.406 o
2 -9 8 363.341 400.065 14.016 12.894 o
2 -9 9 201.613 223.633 11.463 30.031 o
2 -9 10 24.263 15.160 10.211 124.978 o
2 -9 11 23.018 17.703 11.482 102.086 o
2 -9 12 5.211 -6.269 12.695 93.829 o
2 -8 0 1023.960 958.957 14.710 2.560 o
2 -8 1 183.053 144.850 6.142 48.783 o
2 -8 2 87.236 89.062 4.959 116.856 o
2 -8 3 105.613 98.539 5.438 94.178 o
2 -8 4 9.341 5.438 5.017 484.143 o
2 -8 5 267.168 246.334 8.939 24.782 o
2 -8 6 71.686 71.613 5.829 133.154 o
2 -8 7 18.109 10.230 7.199 236.291 o
2 -8 8 3.383 -5.321 7.991 234.352 o
2 -8 9 6.745 2.915 8.480 201.540 o
2 -8 10 1.648 -0.538 9.546 167.223 o
2 -8 11 0.555 -1.291 10.847 130.425 o
2 -8 12 1.020 -6.856 12.617 96.307 o
2 -7 0 583.662 561.386 10.563 6.938 o
2 -7 1 2227.360 2026.530 19.904 0.607 o
2 -7 2 961.605 900.704 13.448 2.884 o
2 -7 3 1090.810 993.150 14.739 2.321 o
2 -7 4 60.919 61.999 4.656 174.344 o
2 -7 5 67.776 58.918 4.685 164.518 o
2 -7 6 554.577 538.568 13.624 7.261 o
2 -7 7 577.209 631.708 15.620 6.212 o
2 -7 8 203.220 214.459 10.045 32.313 o
2 -7 9 93.467 88.945 7.355 91.538 o
2 -7 10 2.374 1.663 9.321 173.674 o
2 -7 11 0.326 1.262 10.465 139.812 o
2 -7 12 6.067 5.282 11.893 105.252 o
2 -6 0 2763.000 2402.960 19.943 0.412 o
2 -6 1 1525.020 1370.250 15.219 1.260 o
2 -6 2 2442.880 2153.280 19.620 0.518 o
2 -6 3 1107.370 1067.300 14.573 2.187 o
2 -6 4 1451.990 1399.010 18.045 1.314 o
2 -6 5 1448.930 1377.860 19.356 1.324 o
2 -6 6 1003.970 1021.390 18.065 2.481 o
2 -6 7 794.675 856.701 18.016 3.597 o
2 -6 8 180.264 198.585 9.741 37.194 o
2 -6 9 49.601 36.961 5.145 213.152 o
2 -6 10 41.373 26.936 4.792 264.436 o
2 -6 11 43.136 35.914 5.966 203.318 o
2 -6 12 17.163 8.411 12.138 96.468 o
2 -5 0 581.016 511.348 8.685 7.459 o
2 -5 1 41.023 23.728 3.022 358.963 o
2 -5 2 148.338 129.974 4.988 64.975 o
2 -5 3 51.978 40.247 3.404 253.732 o
2 -5 4 20.186 22.437 2.954 564.451 o
2 -5 5 8.630 5.242 4.744 537.157 o
2 -5 6 7.799 2.015 5.536 434.531 o
2 -5 7 7.861 8.284 6.416 322.270 o
2 -5 8 6.034 -0.039 7.394 265.698 o
2 -5 9 5.980 3.795 8.137 218.328 o
2 -5 10 15.665 7.110 9.243 159.822 o
2 -5 11 16.895 17.986 11.003 113.083 o
2 -5 12 2.608 -0.401 11.874 108.055 o
2 -4 0 1057.370 990.274 10.984 2.453 o
2 -4 1 7704.760 7066.380 28.980 0.054 o
2 -4 2 2929.050 2901.510 20.226 0.340 o
2 -4 3 264.310 204.874 6.230 29.147 o
2 -4 4 1604.120 1553.660 18.065 1.089 o
2 -4 5 876.148 883.460 14.974 3.232 o
2 -4 6 756.735 792.403 15.620 4.059 o
2 -4 7 145.018 160.842 8.069 52.134 o
2 -4 8 155.776 140.283 8.206 51.617 o
2 -4 9 13.431 9.693 8.196 198.667 o
2 -4 10 51.777 39.210 5.673 190.808 o
2 -4 11 45.340 36.853 6.426 184.253 o
2 -4 12 16.825 7.159 12.050 98.142 o
2 -3 0 9027.480 9441.850 78.088 0.036 o
2 -3 1 2706.930 2594.080 16.647 0.406 o
2 -3 2 2866.400 2683.150 18.642 0.368 o
2 -3 3 2625.350 2553.280 20.402 0.425 o
2 -3 4 2847.450 2776.640 23.777 0.362 o
2 -3 5 3642.710 3854.940 31.151 0.212 o
2 -3 6 1032.560 1162.360 18.671 2.210 o
2 -3 7 444.583 507.113 13.575 9.450 o
2 -3 8 248.758 258.931 10.710 24.473 o
2 -3 9 103.189 121.445 8.235 72.334 o
2 -3 10 107.176 113.543 8.617 70.197 o
2 -3 11 33.924 22.016 11.561 95.244 o
2 -3 12 5.475 0.577 12.050 103.747 o
2 -2 0 231.622 193.841 4.421 35.795 o
2 -2 1 2076.350 2025.650 13.986 0.670 o
2 -2 2 136.466 122.590 4.597 73.001 o
2 -2 3 1654.760 1683.920 16.500 1.000 o
2 -2 4 0.599 3.863 4.108 844.934 o
2 -2 5 576.744 608.127 12.460 6.593 o
2 -2 6 8.288 7.443 5.546 412.148 o
2 -2 7 19.793 11.659 6.651 260.626 o
2 -2 8 1.006 -0.166 7.150 297.859 o
2 -2 9 41.607 40.599 5.252 225.243 o
2 -2 10 0.032 -2.435 9.536 169.122 o
2 -2 11 1.416 2.093 10.827 129.785 o
2 -2 12 0.088 2.641 11.952 107.131 o
2 -1 0 4140.890 4212.400 17.341 0.171 o
2 -1 1 21.268 31.132 3.316 463.786 o
2 -1 2 412.417 333.723 6.954 14.067 o
2 -1 3 3128.670 3153.560 22.642 0.296 o
2 -1 4 2560.750 2721.990 23.913 0.419 o
2 -1 5 683.684 738.747 13.732 4.816 o
2 -1 6 422.978 441.339 11.952 11.019 o
2 -1 7 109.387 99.645 6.670 83.820 o
2 -1 8 113.359 126.600 7.834 69.144 o
2 -1 9 89.740 86.607 7.736 91.392 o
2 -1 10 110.462 118.013 9.057 65.776 o
2 -1 11 40.738 30.330 11.893 86.679 o
2 -1 12 9.105 5.096 12.558 93.752 o
2 0 0 14453.300 17538.500 95.840 0.013 o
2 0 1 9510.490 10417.200 83.898 0.031 o
2 0 2 8395.290 8480.280 33.322 0.043 o
2 0 3 8313.040 8710.480 38.447 0.042 o
2 0 4 2165.780 2318.400 22.495 0.575 o
2 0 5 621.568 658.468 13.272 5.751 o
2 0 6 559.009 600.264 13.928 6.756 o
2 0 7 309.127 355.084 11.815 16.761 o
2 0 8 340.852 383.409 13.311 14.205 o
2 0 9 206.669 241.522 11.893 27.997 o
2 0 10 71.538 58.752 7.257 120.412 o
2 0 11 17.479 12.421 11.659 102.898 o
2 1 0 130.530 109.024 4.294 80.700 o
2 1 1 206.305 188.638 5.487 39.765 o
2 1 2 26.982 35.464 3.208 404.910 o
2 1 3 624.436 754.552 11.825 5.332 o
2 1 4 5.317 -1.780 4.558 651.724 o
2 1 5 92.688 93.845 5.585 104.618 o
2 1 6 47.457 35.308 4.206 252.318 o
2 1 7 65.362 62.870 5.731 147.930 o
2 1 8 25.245 19.473 8.402 168.112 o
2 1 9 5.317 4.499 9.194 173.636 o
2 1 10 3.755 2.592 10.221 143.561 o
2 1 11 0.041 -0.929 11.678 112.775 o
2 2 0 421.209 414.266 7.423 12.236 o
2 2 1 2025.870 1832.890 15.541 0.734 o
2 2 2 2370.470 2329.390 19.415 0.514 o
2 2 3 612.644 592.263 10.954 6.348 o
2 2 4 1116.120 1170.220 16.969 2.027 o
2 2 5 122.794 124.272 6.445 72.026 o
2 2 6 590.732 662.879 15.199 5.926 o
2 2 7 192.253 203.866 9.741 34.977 o
2 2 8 382.204 450.816 15.131 11.283 o
2 2 9 183.150 210.018 12.001 32.181 o
2 2 10 26.672 16.304 10.768 112.471 o
2 2 11 1.502 2.895 11.717 110.787 o
2 3 0 8707.890 8462.780 33.215 0.041 o
2 3 1 4658.310 4525.020 26.173 0.139 o
2 3 2 6512.300 7052.890 35.856 0.067 o
2 3 3 705.726 723.880 12.656 4.745 o
2 3 4 432.545 500.590 11.717 10.080 o
2 3 5 1212.940 1296.920 20.197 1.699 o
2 3 6 404.180 475.982 13.497 10.755 o
2 3 7 631.444 736.693 18.241 5.013 o
2 3 8 215.039 244.925 12.196 26.667 o
2 3 9 35.710 20.979 10.240 115.108 o
2 3 10 16.828 15.268 11.277 108.919 o
2 3 11 2.790 1.565 12.138 103.091 o
2 4 0 91.451 80.690 4.333 122.227 o
2 4 1 647.503 692.436 11.248 5.431 o
2 4 2 44.408 63.261 4.352 215.667 o
2 4 3 0.705 3.218 4.421 740.964 o
2 4 4 50.145 44.306 4.176 230.804 o
2 4 5 120.206 106.735 6.856 75.367 o
2 4 6 5.325 4.450 6.925 295.778 o
2 4 7 0.333 -0.968 8.089 234.493 o
2 4 8 3.280 -1.271 9.213 177.592 o
2 4 9 2.553 -1.183 10.064 149.879 o
2 4 10 6.626 2.758 11.111 120.403 o
2 5 0 5857.340 5854.700 32.804 0.087 o
2 5 1 747.356 601.232 11.209 4.954 o
2 5 2 1755.170 1821.300 20.881 0.875 o
2 5 3 351.871 378.235 10.279 14.851 o
2 5 4 230.836 243.713 9.135 28.346 o
2 5 5 778.759 810.664 17.302 3.824 o
2 5 6 243.653 223.878 10.367 26.857 o
2 5 7 416.869 484.325 15.913 9.868 o
2 5 8 95.080 92.710 7.932 85.056 o
2 5 9 4.947 4.773 10.622 131.747 o
2 5 10 3.081 -1.330 11.659 111.835 o
2 6 0 2184.380 2219.430 21.987 0.586 o
2 6 1 100.809 124.164 5.966 85.857 o
2 6 2 261.452 308.812 9.272 22.435 o
2 6 3 516.245 532.875 12.783 7.977 o
2 6 4 884.313 898.796 18.035 3.100 o
2 6 5 916.566 971.535 19.708 2.809 o
2 6 6 539.503 609.193 16.930 6.673 o
2 6 7 180.891 186.985 10.514 36.609 o
2 6 8 43.245 31.376 10.690 100.773 o
2 6 9 3.882 0.998 10.944 125.977 o
2 6 10 13.088 8.812 12.353 94.733 o
2 7 0 33.412 49.216 4.489 266.108 o
2 7 1 34.928 33.635 3.834 323.432 o
2 7 2 42.021 41.831 4.343 254.733 o
2 7 3 234.953 213.050 8.920 29.828 o
2 7 4 79.644 83.027 6.612 110.432 o
2 7 5 0.042 -0.880 7.570 268.315 o
2 7 6 1.913 -0.264 8.646 203.046 o
2 7 7 15.160 7.824 9.399 155.260 o
2 7 8 1.606 1.448 10.182 146.652 o
2 7 9 3.459 2.386 11.434 115.488 o
2 8 0 417.732 413.543 11.111 11.717 o
2 8 1 416.841 418.687 11.512 11.588 o
2 8 2 294.070 313.830 10.583 19.290 o
2 8 3 585.832 593.701 14.945 6.384 o
2 8 4 737.696 779.571 18.045 4.124 o
2 8 5 516.738 562.696 16.490 7.329 o
2 8 6 182.823 183.523 10.387 36.811 o
2 8 7 33.083 26.642 10.319 113.614 o
2 8 8 0.125 1.858 10.671 134.445 o
2 8 9 1.433 2.318 12.167 102.960 o
2 9 0 396.305 400.613 11.600 12.467 o
2 9 1 420.035 450.914 12.509 10.865 o
2 9 2 813.133 857.679 17.977 3.505 o
2 9 3 1150.140 1267.010 22.896 1.809 o
2 9 4 473.472 485.322 15.268 8.828 o
2 9 5 194.026 202.253 10.896 33.054 o
2 9 6 21.995 16.304 9.810 135.008 o
2 9 7 7.469 -0.156 10.622 131.663 o
2 9 8 5.211 3.629 11.639 110.482 o
2 10 0 3.195 2.641 6.406 354.144 o
2 10 1 65.977 59.466 5.634 151.041 o
2 10 2 9.953 5.428 7.560 239.949 o
2 10 3 6.277 4.391 8.069 220.768 o
2 10 4 16.591 9.595 8.959 166.462 o
2 10 5 17.127 7.120 9.448 152.332 o
2 10 6 0.478 -0.176 10.064 151.493 o
2 10 7 0.893 -4.147 11.111 124.135 o
2 10 8 6.485 3.883 12.099 101.925 o
2 11 0 371.342 365.735 12.421 13.693 o
2 11 1 357.816 389.854 13.047 13.553 o
2 11 2 543.585 572.144 16.461 6.903 o
2 11 3 305.456 334.868 13.351 16.721 o
2 11 4 114.349 113.738 8.558 67.672 o
2 11 5 38.277 37.049 5.321 236.591 o
2 11 6 1.188 1.829 10.641 134.530 o
2 11 7 10.965 5.575 11.942 102.420 o
2 12 0 310.356 371.359 13.223 15.724 o
2 12 1 520.302 596.821 17.312 6.956 o
2 12 2 408.545 471.072 15.864 10.212 o
2 12 3 113.941 113.288 8.871 66.317 o
2 12 4 60.704 46.614 6.279 155.715 o
2 12 5 11.613 3.531 10.690 126.459 o
2 12 6 7.749 4.744 11.600 109.836 o
2 13 0 1.016 0.665 8.382 216.765 o
2 13 1 0.457 -2.377 9.292 177.684 o
2 13 2 19.581 21.733 9.673 138.001 o
2 13 3 18.055 10.465 10.113 133.070 o
2 13 4 1.473 3.922 10.446 138.673 o
2 13 5 0.229 -0.303 11.463 116.961 o
2 14 0 302.067 370.528 14.524 15.524 o
2 14 1 182.791 193.988 11.306 34.419 o
2 14 2 149.004 160.675 10.729 43.821 o
2 14 3 18.808 16.441 11.091 110.905 o
2 14 4 3.288 1.457 11.463 115.203 o
2 14 5 10.266 9.546 12.421 94.592 o
2 15 0 121.337 124.145 9.908 57.364 o
2 15 1 30.355 21.439 11.365 99.706 o
2 15 2 11.696 11.570 10.944 118.731 o
2 15 3 3.113 1.164 11.453 115.547 o
2 15 4 7.183 4.127 12.363 97.457 o
2 16 0 19.035 12.108 11.238 109.295 o
2 16 1 3.530 1.301 11.434 115.709 o
2 16 2 0.238 -2.269 12.167 103.821 o
2 17 0 26.211 22.329 12.539 85.570 o
2 17 1 13.128 9.448 12.421 93.631 o
3 -20 2 38.940 31.660 13.458 71.126 o
3 -20 3 31.840 38.800 13.536 71.309 o
3 -19 0 79.655 75.751 8.617 92.654 o
3 -19 1 36.191 28.471 12.617 80.509 o
3 -19 2 36.237 33.097 6.201 213.365 o
3 -19 3 29.698 29.175 12.480 83.991 o
3 -19 4 4.468 3.110 11.893 106.332 o
3 -19 5 3.988 5.330 11.971 104.730 o
3 -19 6 11.518 9.605 12.715 90.088 o
3 -18 0 0.270 1.350 11.033 125.868 o
3 -18 1 0.839 5.017 10.739 131.366 o
3 -18 2 0.126 -1.741 10.573 137.526 o
3 -18 3 0.010 -2.543 10.817 131.450 o
3 -18 4 6.011 -2.758 11.072 122.287 o
3 -18 5 0.218 -3.814 11.365 118.986 o
3 -18 6 2.255 0.655 11.805 109.311 o
3 -18 7 1.842 -0.088 12.167 103.235 o
3 -17 0 203.904 226.420 12.412 28.384 o
3 -17 1 105.817 134.395 9.702 61.405 o
3 -17 2 49.888 56.649 6.886 151.302 o
3 -17 3 6.235 7.795 10.064 144.044 o
3 -17 4 18.603 11.874 10.201 130.173 o
3 -17 5 108.099 109.337 9.155 67.698 o
3 -17 6 87.095 87.761 8.656 84.940 o
3 -17 7 82.653 85.942 8.538 88.787 o
3 -17 8 12.939 13.194 12.402 93.330 o
3 -16 0 36.749 30.418 5.467 244.508 o
3 -16 1 64.413 71.124 7.101 123.460 o
3 -16 2 44.105 35.523 5.360 221.641 o
3 -16 3 18.445 10.123 9.468 149.210 o
3 -16 4 144.932 138.659 9.634 50.261 o
3 -16 5 165.737 159.981 10.573 41.187 o
3 -16 6 58.855 52.884 7.159 137.630 o
3 -16 7 19.326 15.561 11.267 107.807 o
3 -16 8 0.705 4.851 11.169 121.688 o
3 -16 9 0.027 -0.176 11.991 106.971 o
3 -15 0 11.176 7.648 8.558 188.639 o
3 -15 1 12.720 5.154 8.411 194.150 o
3 -15 2 6.294 0.039 8.294 213.161 o
3 -15 3 4.081 4.450 8.343 210.795 o
3 -15 4 1.880 -1.154 9.067 184.906 o
3 -15 5 36.126 19.189 9.683 125.898 o
3 -15 6 54.088 31.347 10.514 97.583 o
3 -15 7 36.367 17.752 10.661 108.530 o
3 -15 8 9.323 4.401 10.661 128.246 o
3 -15 9 1.553 1.565 11.365 117.970 o
3 -15 10 2.303 -0.411 12.989 90.530 o
3 -14 0 17.007 20.246 8.333 180.569 o
3 -14 1 38.079 45.978 5.389 222.660 o
3 -14 2 171.073 171.405 8.988 42.666 o
3 -14 3 408.511 366.068 13.272 12.213 o
3 -14 4 366.047 402.334 14.113 12.740 o
3 -14 5 360.932 425.592 14.945 12.292 o
3 -14 6 34.371 39.611 5.389 241.336 o
3 -14 7 41.974 44.521 5.810 201.547 o
3 -14 8 3.822 2.201 10.230 143.387 o
3 -14 9 3.572 3.237 11.023 123.790 o
3 -14 10 20.906 12.764 12.382 90.928 o
3 -13 0 206.975 225.403 10.094 31.093 o
3 -13 1 254.333 246.617 10.289 24.872 o
3 -13 2 243.016 262.374 10.651 24.870 o
3 -13 3 500.559 427.881 13.742 9.091 o
3 -13 4 303.835 335.523 12.519 17.186 o
3 -13 5 119.532 120.115 8.020 67.098 o
3 -13 6 23.462 24.324 8.695 158.659 o
3 -13 7 22.971 15.170 9.243 148.771 o
3 -13 8 22.944 17.595 9.976 130.056 o
3 -13 9 31.792 23.376 11.414 97.918 o
3 -13 10 27.525 24.432 12.323 87.375 o
3 -12 0 59.138 58.400 5.370 167.029 o
3 -12 1 53.773 35.963 4.890 211.693 o
3 -12 2 162.484 150.161 7.981 49.240 o
3 -12 3 14.310 6.533 7.003 261.287 o
3 -12 4 91.598 74.841 6.543 104.755 o
3 -12 5 207.948 204.756 9.810 32.648 o
3 -12 6 6.361 3.678 7.668 243.338 o
3 -12 7 33.732 29.117 4.656 295.982 o
3 -12 8 0.178 2.787 8.998 188.071 o
3 -12 9 0.227 1.614 10.133 149.036 o
3 -12 10 10.256 4.255 11.414 112.229 o
3 -12 11 0.306 -3.511 12.549 97.588 o
3 -11 0 19.812 17.820 6.201 278.540 o
3 -11 1 1341.430 1433.950 21.615 1.407 o
3 -11 2 1214.720 1158.460 19.943 1.817 o
3 -11 3 1295.270 1307.680 21.429 1.555 o
3 -11 4 761.563 868.359 17.908 3.741 o
3 -11 5 122.930 135.441 7.805 63.912 o
3 -11 6 139.306 164.157 8.910 50.731 o
3 -11 7 75.048 80.132 6.827 113.210 o
3 -11 8 87.226 90.157 7.414 94.600 o
3 -11 9 141.391 161.575 10.573 45.672 o
3 -11 10 54.333 48.971 6.592 156.583 o
3 -11 11 15.076 6.651 11.962 100.271 o
3 -10 0 745.122 707.762 14.544 4.445 o
3 -10 1 2806.020 2682.340 28.354 0.374 o
3 -10 2 734.898 610.465 13.615 4.923 o
3 -10 3 461.970 434.541 11.874 10.140 o
3 -10 4 80.796 87.155 6.054 113.393 o
3 -10 5 1.717 3.003 6.416 358.864 o
3 -10 6 217.525 216.523 9.468 31.114 o
3 -10 7 51.944 45.548 5.105 198.946 o
3 -10 8 91.127 81.326 7.199 96.811 o
3 -10 9 105.228 114.697 8.734 70.091 o
3 -10 10 11.249 6.211 10.651 126.738 o
3 -10 11 5.848 4.851 11.561 111.381 o
3 -9 0 514.165 537.169 12.118 8.045 o
3 -9 1 602.667 594.161 12.509 6.359 o
3 -9 2 336.534 290.141 9.008 18.187 o
3 -9 3 215.591 178.564 7.472 36.583 o
3 -9 4 273.187 281.798 9.820 22.231 o
3 -9 5 4.133 2.044 5.947 403.696 o
3 -9 6 18.159 6.612 6.817 262.216 o
3 -9 7 1.130 -4.568 7.815 249.469 o
3 -9 8 6.447 3.687 8.450 202.728 o
3 -9 9 3.370 2.641 9.262 174.248 o
3 -9 10 3.504 -1.144 10.406 139.653 o
3 -9 11 0.601 -2.328 11.434 117.387 o
3 -8 0 5950.840 5762.510 36.227 0.086 o
3 -8 1 3644.370 3377.030 28.012 0.231 o
3 -8 2 2236.720 2246.360 23.415 0.563 o
3 -8 3 783.299 788.002 14.319 3.955 o
3 -8 4 507.635 595.266 13.096 7.586 o
3 -8 5 186.676 189.215 8.235 39.488 o
3 -8 6 570.374 597.965 15.101 6.530 o
3 -8 7 560.428 588.879 16.089 6.621 o
3 -8 8 344.345 407.381 14.270 13.324 o
3 -8 9 134.129 152.489 9.624 51.244 o
3 -8 10 21.468 15.033 10.592 119.111 o
3 -8 11 1.289 -1.330 11.277 120.319 o
3 -7 0 1402.240 1275.520 16.079 1.459 o
3 -7 1 559.438 453.379 9.741 8.210 o
3 -7 2 53.928 43.230 3.707 234.139 o
3 -7 3 18.309 9.908 4.548 452.573 o
3 -7 4 330.316 336.129 9.595 17.056 o
3 -7 5 496.429 533.805 12.950 8.287 o
3 -7 6 518.330 514.566 13.742 7.988 o
3 -7 7 287.369 338.379 11.991 18.240 o
3 -7 8 92.045 76.494 6.817 101.270 o
3 -7 9 0.109 2.651 8.734 199.679 o
3 -7 10 3.695 -7.335 10.054 149.277 o
3 -7 11 7.412 7.306 11.130 118.405 o
3 -6 0 1328.440 1422.890 15.854 1.460 o
3 -6 1 755.565 605.115 10.475 4.896 o
3 -6 2 204.428 194.105 6.445 38.469 o
3 -6 3 27.377 16.959 2.729 531.274 o
3 -6 4 4.798 3.717 4.665 607.346 o
3 -6 5 40.904 29.919 4.098 291.445 o
3 -6 6 188.984 162.299 8.157 41.706 o
3 -6 7 96.907 87.810 6.876 93.514 o
3 -6 8 23.114 17.556 8.108 181.844 o
3 -6 9 12.887 6.260 8.851 176.300 o
3 -6 10 2.030 2.113 9.605 163.861 o
3 -6 11 1.419 -1.350 11.287 120.048 o
3 -6 12 1.762 0.196 12.470 98.300 o
3 -5 0 2844.240 2455.580 19.346 0.392 o
3 -5 1 1254.940 1088.220 13.331 1.856 o
3 -5 2 2192.420 2234.480 19.933 0.583 o
3 -5 3 374.514 320.744 8.313 15.672 o
3 -5 4 3164.080 3320.160 28.589 0.280 o
3 -5 5 1622.400 1590.680 21.556 1.048 o
3 -5 6 1474.900 1580.010 23.141 1.176 o
3 -5 7 125.198 122.502 7.600 66.356 o
3 -5 8 104.601 111.088 7.619 77.602 o
3 -5 9 0.837 1.056 8.372 217.240 o
3 -5 10 14.600 7.052 10.084 137.535 o
3 -5 11 48.355 41.890 6.749 166.750 o
3 -5 12 18.267 11.864 12.861 85.787 o
3 -4 0 144.348 131.001 4.832 66.840 o
3 -4 1 33.872 28.452 3.218 379.721 o
3 -4 2 501.726 483.562 9.067 9.079 o
3 -4 3 885.277 898.992 13.311 3.191 o
3 -4 4 1305.980 1319.670 17.879 1.553 o
3 -4 5 662.630 657.813 13.605 5.341 o
3 -4 6 238.694 233.013 9.194 28.020 o
3 -4 7 15.197 8.763 6.768 270.599 o
3 -4 8 24.262 13.624 7.756 196.041 o
3 -4 9 33.907 26.290 9.194 135.033 o
3 -4 10 52.834 38.291 5.859 184.749 o
3 -4 11 38.382 30.535 6.387 204.863 o
3 -3 0 23.294 10.133 3.149 581.382 o
3 -3 1 344.655 327.258 6.983 17.365 o
3 -3 2 302.945 279.421 6.954 21.575 o
3 -3 3 126.607 99.723 4.949 82.997 o
3 -3 4 1115.890 1101.440 16.128 2.112 o
3 -3 5 353.686 352.023 10.328 15.319 o
3 -3 6 216.945 217.999 8.910 31.752 o
3 -3 7 48.802 41.186 4.871 218.168 o
3 -3 8 9.477 7.062 7.472 244.242 o
3 -3 9 0.742 2.533 8.519 208.926 o
3 -3 10 0.941 3.687 9.771 158.686 o
3 -3 11 17.631 11.844 11.531 105.030 o
3 -2 0 2668.090 2722.620 17.449 0.401 o
3 -2 1 358.454 319.952 6.856 16.858 o
3 -2 2 1878.580 1989.290 17.419 0.765 o
3 -2 3 5166.700 5354.470 31.787 0.109 o
3 -2 4 3089.970 3283.610 27.699 0.291 o
3 -2 5 1087.040 1191.330 18.378 2.054 o
3 -2 6 148.975 156.245 7.609 52.974 o
3 -2 7 49.814 48.727 4.802 208.278 o
3 -2 8 26.408 21.126 8.049 176.685 o
3 -2 9 96.197 103.498 8.597 77.141 o
3 -2 10 92.654 101.522 9.018 76.328 o
3 -2 11 42.725 38.027 6.475 186.461 o
3 -1 0 826.887 777.282 9.751 3.843 o
3 -1 1 2510.720 2504.980 17.996 0.457 o
3 -1 2 5603.920 5384.400 29.087 0.098 o
3 -1 3 2944.380 2832.240 23.630 0.342 o
3 -1 4 1073.900 1036.750 15.737 2.297 o
3 -1 5 24.597 17.977 3.286 499.822 o
3 -1 6 27.785 21.674 3.355 443.840 o
3 -1 7 31.439 20.236 7.150 200.895 o
3 -1 8 87.246 91.321 7.394 94.381 o
3 -1 9 164.211 178.515 10.495 40.014 o
3 -1 10 43.305 27.337 11.297 93.536 o
3 -1 11 9.122 3.951 11.678 108.003 o
3 0 0 25.910 42.262 3.511 368.788 o
3 0 1 3477.310 3425.420 21.527 0.245 o
3 0 2 2896.010 2703.420 21.302 0.361 o
3 0 3 4661.850 4596.570 30.858 0.137 o
3 0 4 1570.620 1464.590 18.974 1.155 o
3 0 5 169.846 158.436 7.247 48.128 o
3 0 6 36.035 32.775 4.147 304.203 o
3 0 7 1.678 -0.362 6.954 312.409 o
3 0 8 0.241 -6.152 8.568 209.190 o
3 0 9 26.189 25.782 10.406 116.518 o
3 0 10 12.474 6.250 10.935 119.964 o
3 0 11 14.257 17.008 12.148 95.808 o
3 1 0 7433.650 7349.910 30.408 0.055 o
3 1 1 10856.700 11488.100 41.225 0.025 o
3 1 2 4720.250 4827.090 29.459 0.131 o
3 1 3 1730.910 1834.530 20.128 0.888 o
3 1 4 47.450 42.154 3.873 251.892 o
3 1 5 7.397 8.939 5.526 415.465 o
3 1 6 164.306 197.020 8.900 41.680 o
3 1 7 269.288 313.898 11.922 20.066 o
3 1 8 305.205 354.517 14.231 15.867 o
3 1 9 252.191 287.520 13.859 20.631 o
3 1 10 38.586 26.290 12.177 84.927 o
3 1 11 10.017 6.788 12.382 95.723 o
3 2 0 4189.140 4110.760 24.344 0.170 o
3 2 1 510.261 479.591 9.243 8.930 o
3 2 2 1159.100 1215.050 15.620 1.904 o
3 2 3 21.339 13.771 2.768 637.920 o
3 2 4 21.631 23.395 3.247 506.860 o
3 2 5 506.441 512.835 13.174 8.269 o
3 2 6 97.795 96.104 6.729 91.390 o
3 2 7 398.572 463.805 14.788 10.774 o
3 2 8 94.347 84.211 7.717 89.526 o
3 2 9 6.534 1.066 10.240 141.575 o
3 2 10 0.032 -0.108 11.033 126.361 o
3 3 0 3409.680 3293.450 23.464 0.257 o
3 3 1 4054.000 4064.060 27.415 0.179 o
3 3 2 1166.470 1086.070 15.453 2.023 o
3 3 3 515.110 538.568 11.756 8.054 o
3 3 4 13.043 12.676 5.516 372.038 o
3 3 5 0.269 0.039 6.220 395.995 o
3 3 6 69.254 54.449 5.702 148.843 o
3 3 7 62.291 79.653 7.179 120.376 o
3 3 8 80.984 88.778 8.098 92.856 o
3 3 9 40.228 37.636 6.054 204.812 o
3 3 10 4.611 2.748 11.424 115.055 o
3 4 0 7645.760 7657.490 38.037 0.051 o
3 4 1 2629.070 2717.220 24.002 0.406 o
3 4 2 380.843 363.026 9.536 14.184 o
3 4 3 243.610 250.911 8.548 27.129 o
3 4 4 119.976 136.459 6.993 68.263 o
3 4 5 1152.010 1317.060 22.173 1.768 o
3 4 6 445.037 518.860 15.668 8.985 o
3 4 7 454.430 504.756 16.558 8.794 o
3 4 8 105.447 108.105 8.832 70.762 o
3 4 9 8.385 5.859 10.680 127.927 o
3 4 10 2.699 3.443 11.698 110.523 o
3 5 0 102.781 97.835 5.370 96.884 o
3 5 1 70.006 73.462 4.881 147.044 o
3 5 2 50.097 46.790 4.206 226.546 o
3 5 3 153.258 133.789 6.768 57.443 o
3 5 4 372.083 384.954 11.922 13.466 o
3 5 5 277.345 283.119 11.502 20.810 o
3 5 6 85.001 73.345 6.827 107.773 o
3 5 7 25.405 14.436 9.468 141.161 o
3 5 8 0.541 0.577 9.957 154.491 o
3 5 9 0.635 0.822 10.944 127.836 o
3 6 0 1509.950 1469.790 19.248 1.211 o
3 6 1 215.587 197.401 7.609 34.931 o
3 6 2 34.879 38.467 4.176 295.312 o
3 6 3 7.499 -0.205 6.377 344.184 o
3 6 4 53.478 47.661 5.467 184.517 o
3 6 5 194.445 199.309 9.986 34.609 o
3 6 6 145.827 152.440 9.888 47.683 o
3 6 7 58.752 53.334 6.690 145.979 o
3 6 8 39.499 28.755 11.267 95.295 o
3 6 9 5.323 3.110 11.629 110.727 o
3 7 0 48.843 41.049 4.382 233.210 o
3 7 1 119.470 131.236 6.866 70.118 o
3 7 2 217.494 251.439 9.497 29.031 o
3 7 3 939.746 1013.770 19.610 2.663 o
3 7 4 1114.530 1204.770 22.945 1.934 o
3 7 5 590.914 645.812 17.957 5.807 o
3 7 6 209.811 249.278 11.913 27.281 o
3 7 7 30.992 22.055 10.475 113.519 o
3 7 8 6.676 4.792 10.954 123.158 o
3 7 9 5.334 1.232 12.333 99.058 o
3 8 0 16.047 15.150 5.947 314.630 o
3 8 1 309.468 293.701 10.436 19.041 o
3 8 2 450.035 438.757 12.891 10.203 o
3 8 3 403.123 423.401 13.624 11.451 o
3 8 4 54.818 52.874 6.230 160.684 o
3 8 5 10.929 14.289 9.076 166.278 o
3 8 6 16.242 8.871 9.565 149.047 o
3 8 7 0.177 0.626 10.328 143.855 o
3 8 8 1.612 1.408 11.482 115.602 o
3 9 0 63.555 64.161 5.546 152.620 o
3 9 1 0.918 3.091 6.573 345.716 o
3 9 2 98.468 94.412 7.120 88.643 o
3 9 3 464.371 497.362 15.307 8.880 o
3 9 4 321.733 363.867 13.957 15.094 o
3 9 5 154.569 177.361 10.622 41.514 o
3 9 6 26.775 22.818 10.632 112.998 o
3 9 7 11.564 9.428 11.306 112.368 o
3 9 8 2.390 3.316 12.402 98.638 o
3 10 0 277.939 317.810 11.521 19.645 o
3 10 1 594.150 665.882 16.920 5.753 o
3 10 2 937.187 1042.620 22.055 2.581 o
3 10 3 570.402 622.104 18.094 6.133 o
3 10 4 123.340 125.612 9.252 59.331 o
3 10 5 10.415 5.634 9.976 144.032 o
3 10 6 7.682 6.455 10.856 124.248 o
3 10 7 15.857 6.191 12.157 97.075 o
3 11 0 196.012 198.546 9.751 34.803 o
3 11 1 142.143 133.779 8.490 55.395 o
3 11 2 50.588 31.190 6.005 191.776 o
3 11 3 7.010 -1.976 9.526 162.763 o
3 11 4 1.630 -2.807 9.751 160.331 o
3 11 5 0.006 -0.567 10.465 140.446 o
3 11 6 8.880 5.252 11.649 108.347 o
3 12 0 132.301 139.921 8.969 55.662 o
3 12 1 277.475 294.200 12.588 19.749 o
3 12 2 271.533 306.201 13.487 19.168 o
3 12 3 113.004 113.778 8.773 67.071 o
3 12 4 29.642 33.244 5.418 264.407 o
3 12 5 7.171 3.149 11.453 113.194 o
3 12 6 13.517 8.822 12.783 88.683 o
3 13 0 353.018 417.719 15.444 12.500 o
3 13 1 303.216 325.703 14.133 16.653 o
3 13 2 140.768 137.515 10.270 49.335 o
3 13 3 18.102 13.859 10.905 115.361 o
3 13 4 11.956 11.737 11.394 110.022 o
3 13 5 26.859 23.248 12.998 80.005 o
3 14 0 20.304 13.370 10.279 126.787 o
3 14 1 0.676 -4.695 10.573 137.173 o
3 14 2 5.109 2.836 10.749 129.231 o
3 14 3 1.963 1.536 11.189 121.473 o
3 14 4 7.225 4.411 12.294 98.445 o
3 15 0 185.994 204.600 12.284 31.708 o
3 15 1 89.929 86.196 8.607 84.277 o
3 15 2 36.367 33.802 12.304 82.971 o
3 15 3 3.152 -0.548 12.412 98.789 o
3 16 0 36.648 21.400 12.372 84.202 o
3 16 1 13.434 8.900 12.294 95.446 o
3 17 0 4.256 3.394 12.353 98.750 o
4 -20 2 0.200 -0.626 12.617 96.567 o
4 -20 3 0.385 -0.274 12.421 99.568 o
4 -19 0 70.593 74.186 8.773 96.925 o
4 -19 1 36.587 22.975 12.431 83.296 o
4 -19 2 17.229 8.020 12.245 94.953 o
4 -19 3 21.041 20.803 12.020 94.346 o
4 -19 4 1.654 -0.978 12.011 105.997 o
4 -19 5 13.596 11.825 12.294 94.869 o
4 -19 6 9.739 3.228 12.695 91.911 o
4 -18 0 127.854 140.801 10.935 49.646 o
4 -18 1 44.508 48.257 6.436 175.650 o
4 -18 2 22.867 26.965 11.160 105.084 o
4 -18 3 13.163 15.913 11.052 114.685 o
4 -18 4 3.664 -2.191 11.003 125.053 o
4 -18 5 50.044 48.463 6.817 158.012 o
4 -18 6 59.445 49.656 7.306 136.162 o
4 -18 7 54.935 48.815 7.717 134.006 o
4 -17 0 23.592 10.270 10.641 118.313 o
4 -17 1 20.244 10.377 10.309 127.192 o
4 -17 2 7.375 3.413 9.839 151.222 o
4 -17 3 4.376 0.851 9.888 153.324 o
4 -17 4 2.530 2.073 10.045 149.663 o
4 -17 5 24.478 24.833 11.267 103.122 o
4 -17 6 9.919 12.157 11.287 112.870 o
4 -17 7 1.383 -0.900 12.099 104.570 o
4 -17 8 0.181 2.856 12.255 101.849 o
4 -16 0 221.527 263.010 12.597 24.866 o
4 -16 1 41.705 39.582 5.673 211.991 o
4 -16 2 9.527 3.971 9.076 173.488 o
4 -16 3 19.579 8.137 9.340 152.619 o
4 -16 4 46.415 27.787 10.221 106.892 o
4 -16 5 79.070 76.435 7.952 99.403 o
4 -16 6 77.262 76.748 7.785 102.263 o
4 -16 7 44.965 39.611 6.181 189.414 o
4 -16 8 19.370 13.194 12.050 96.019 o
4 -16 9 8.077 4.939 12.284 98.201 o
4 -15 0 18.182 17.585 8.910 161.852 o
4 -15 1 5.095 8.411 8.382 204.311 o
4 -15 2 69.624 70.293 6.465 127.505 o
4 -15 3 268.420 269.162 11.942 21.596 o
4 -15 4 428.698 521.295 16.764 9.086 o
4 -15 5 366.597 453.643 16.236 11.370 o
4 -15 6 87.905 94.656 8.177 86.535 o
4 -15 7 30.735 30.936 11.169 100.191 o
4 -15 8 5.070 4.577 10.993 123.252 o
4 -15 9 0.076 -4.049 11.962 107.478 o
4 -14 0 67.078 64.718 6.113 138.550 o
4 -14 1 19.834 10.720 7.942 198.254 o
4 -14 2 17.652 8.851 7.922 204.196 o
4 -14 3 70.221 61.412 6.191 135.619 o
4 -14 4 41.257 34.868 5.370 229.565 o
4 -14 5 9.479 -2.836 9.370 165.534 o
4 -14 6 0.035 2.748 9.018 187.459 o
4 -14 7 5.283 0.284 9.546 163.621 o
4 -14 8 0.060 -0.753 10.543 138.335 o
4 -14 9 4.805 2.611 11.326 116.941 o
4 -14 10 4.194 -3.179 13.116 88.280 o
4 -13 0 33.092 27.689 4.391 316.569 o
4 -13 1 75.697 74.371 6.328 121.098 o
4 -13 2 584.986 606.161 15.884 6.247 o
4 -13 3 455.745 402.706 13.331 10.418 o
4 -13 4 291.575 312.969 12.529 18.421 o
4 -13 5 371.053 444.391 14.906 11.734 o
4 -13 6 11.016 7.150 8.695 183.854 o
4 -13 7 55.843 41.665 5.673 180.739 o
4 -13 8 22.640 16.314 10.319 123.454 o
4 -13 9 3.352 0.303 10.876 128.038 o
4 -13 10 29.310 18.114 12.930 80.785 o
4 -12 0 198.041 209.226 9.233 34.509 o
4 -12 1 1035.320 1089.330 20.256 2.274 o
4 -12 2 1214.270 1310.350 22.564 1.667 o
4 -12 3 881.415 930.280 19.238 3.022 o
4 -12 4 702.378 782.006 18.270 4.330 o
4 -12 5 46.490 51.055 5.311 199.318 o
4 -12 6 83.586 91.351 7.199 98.535 o
4 -12 7 14.118 9.663 9.018 167.244 o
4 -12 8 50.975 41.039 5.702 189.801 o
4 -12 9 39.340 35.093 6.142 206.475 o
4 -12 10 30.967 28.814 12.353 85.095 o
4 -11 0 12.121 7.267 6.396 309.733 o
4 -11 1 320.876 326.525 10.915 17.273 o
4 -11 2 162.435 147.256 7.795 50.088 o
4 -11 3 1.869 -0.166 6.758 329.694 o
4 -11 4 0.210 -1.399 7.032 310.367 o
4 -11 5 100.316 91.908 6.807 90.554 o
4 -11 6 8.291 5.008 7.717 235.111 o
4 -11 7 0.105 -0.401 8.490 213.266 o
4 -11 8 5.762 2.699 9.340 168.930 o
4 -11 9 4.100 -0.929 10.671 132.568 o
4 -11 10 0.102 -2.924 11.394 118.430 o
4 -11 11 0.520 1.878 12.196 102.880 o
4 -10 0 495.583 483.190 12.382 8.834 o
4 -10 1 2039.510 2030.180 25.136 0.672 o
4 -10 2 1484.250 1308.650 20.256 1.319 o
4 -10 3 1434.700 1542.260 22.632 1.236 o
4 -10 4 354.480 434.845 12.734 12.985 o
4 -10 5 78.580 73.032 5.907 123.903 o
4 -10 6 142.305 162.309 8.861 50.357 o
4 -10 7 76.948 62.879 6.455 123.946 o
4 -10 8 74.311 69.041 7.052 115.997 o
4 -10 9 63.014 59.593 7.081 130.883 o
4 -10 10 19.799 17.986 11.668 100.559 o
4 -10 11 4.667 7.208 12.011 103.439 o
4 -9 0 5078.190 5109.780 37.264 0.114 o
4 -9 1 3734.000 3672.700 31.767 0.212 o
4 -9 2 1327.020 1344.460 19.434 1.497 o
4 -9 3 430.432 463.306 11.971 10.540 o
4 -9 4 99.756 95.605 6.132 94.576 o
4 -9 5 98.132 116.663 7.150 82.351 o
4 -9 6 323.085 333.332 12.148 16.469 o
4 -9 7 200.278 215.779 10.377 32.146 o
4 -9 8 188.863 197.206 10.759 34.299 o
4 -9 9 80.844 78.567 7.776 99.272 o
4 -9 10 21.155 16.001 11.120 109.310 o
4 -9 11 1.693 -0.088 11.835 109.138 o
4 -8 0 184.225 170.906 7.062 43.777 o
4 -8 1 72.278 69.990 4.802 147.362 o
4 -8 2 1.987 0.567 4.675 667.358 o
4 -8 3 207.941 215.466 8.089 34.142 o
4 -8 4 0.299 -2.171 5.555 495.915 o
4 -8 5 0.166 -0.333 5.976 429.695 o
4 -8 6 49.014 45.274 5.546 193.694 o
4 -8 7 0.685 -2.367 8.020 237.825 o
4 -8 8 9.344 3.844 8.812 183.558 o
4 -8 9 17.933 15.385 9.605 143.710 o
4 -8 10 8.720 4.841 10.583 130.288 o
4 -8 11 0.002 -2.455 11.835 109.829 o
4 -7 0 3693.750 3417.220 27.298 0.225 o
4 -7 1 3524.810 3038.730 26.026 0.258 o
4 -7 2 617.444 690.206 12.901 5.654 o
4 -7 3 377.565 423.773 10.612 12.933 o
4 -7 4 168.091 187.983 7.971 43.682 o
4 -7 5 405.808 416.408 12.020 11.836 o
4 -7 6 502.181 548.818 15.062 7.818 o
4 -7 7 437.017 504.326 15.180 9.370 o
4 -7 8 163.617 197.450 10.299 38.931 o
4 -7 9 60.728 57.813 6.758 139.682 o
4 -7 10 7.025 3.110 10.514 133.556 o
4 -7 11 0.205 -0.440 11.345 119.403 o
4 -6 0 882.110 823.711 12.715 3.384 o
4 -6 1 960.104 931.620 13.664 2.830 o
4 -6 2 315.379 294.669 8.177 19.667 o
4 -6 3 425.371 449.721 10.700 11.067 o
4 -6 4 1964.470 2000.780 23.962 0.712 o
4 -6 5 1331.830 1350.370 21.048 1.477 o
4 -6 6 1079.570 1134.810 21.067 2.104 o
4 -6 7 201.935 215.564 9.898 32.608 o
4 -6 8 84.486 81.834 6.827 104.846 o
4 -6 9 4.644 2.543 9.194 175.435 o
4 -6 10 0.047 1.164 10.152 148.770 o
4 -6 11 13.472 15.268 12.011 98.464 o
4 -5 0 42.514 59.349 3.863 240.206 o
4 -5 1 39.850 49.676 3.629 274.189 o
4 -5 2 4.387 2.690 3.873 851.905 o
4 -5 3 231.310 207.681 7.228 32.344 o
4 -5 4 0.508 1.907 5.096 575.436 o
4 -5 5 29.847 21.576 4.391 348.893 o
4 -5 6 30.258 24.540 4.255 347.708 o
4 -5 7 65.651 58.410 5.575 153.242 o
4 -5 8 12.094 6.886 8.147 205.105 o
4 -5 9 0.016 -0.323 8.930 192.888 o
4 -5 10 0.411 -0.998 10.387 142.292 o
4 -5 11 1.748 1.223 11.825 109.044 o
4 -4 0 643.582 575.421 9.741 6.149 o
4 -4 1 1003.210 992.455 13.341 2.589 o
4 -4 2 1124.860 1218.210 15.492 1.971 o
4 -4 3 1822.750 1773.020 20.079 0.851 o
4 -4 4 2492.700 2487.890 26.046 0.458 o
4 -4 5 1370.830 1394.800 21.126 1.398 o
4 -4 6 509.977 529.090 14.280 7.944 o
4 -4 7 75.597 86.294 6.533 113.335 o
4 -4 8 61.379 65.139 6.220 143.570 o
4 -4 9 0.222 1.712 9.086 185.056 o
4 -4 10 15.860 11.424 10.690 121.564 o
4 -4 11 23.939 17.830 12.314 89.894 o
4 -3 0 368.924 336.110 7.394 15.807 o
4 -3 1 3198.970 3245.140 23.229 0.282 o
4 -3 2 2774.600 2772.040 23.092 0.375 o
4 -3 3 4384.390 4378.230 31.484 0.154 o
4 -3 4 1981.800 2023.940 23.248 0.700 o
4 -3 5 750.348 802.937 15.864 4.057 o
4 -3 6 131.234 151.355 7.805 58.384 o
4 -3 7 95.960 99.058 6.886 90.469 o
4 -3 8 14.598 9.135 8.333 191.735 o
4 -3 9 29.192 26.496 9.947 123.043 o
4 -3 10 26.278 17.253 11.130 106.271 o
4 -3 11 17.346 13.037 12.265 93.733 o
4 -2 0 41.109 48.688 3.648 270.517 o
4 -2 1 636.031 630.857 10.358 5.896 o
4 -2 2 109.755 125.896 5.301 83.567 o
4 -2 3 17.607 8.225 4.607 458.238 o
4 -2 4 65.731 68.269 5.008 155.149 o
4 -2 5 160.081 154.866 7.560 50.305 o
4 -2 6 3.999 4.049 6.328 355.587 o
4 -2 7 0.176 -1.751 7.140 301.207 o
4 -2 8 0.587 -3.658 8.333 220.546 o
4 -2 9 0.909 -5.370 9.702 162.585 o
4 -2 10 0.431 -1.849 10.964 127.723 o
4 -2 11 0.002 -2.973 12.206 103.243 o
4 -1 0 446.918 397.845 8.118 11.597 o
4 -1 1 3733.390 3623.830 24.598 0.215 o
4 -1 2 3576.490 3699.270 27.024 0.224 o
4 -1 3 3530.960 3664.730 29.312 0.228 o
4 -1 4 2016.610 2134.080 24.403 0.661 o
4 -1 5 213.081 238.949 9.027 30.786 o
4 -1 6 196.733 236.974 9.575 32.321 o
4 -1 7 6.599 6.035 7.580 245.470 o
4 -1 8 60.359 49.793 6.406 151.532 o
4 -1 9 68.017 72.191 7.688 112.037 o
4 -1 10 40.322 29.968 12.314 82.177 o
4 -1 11 19.667 15.131 12.989 83.365 o
4 0 0 6072.600 6363.680 31.435 0.079 o
4 0 1 8711.570 9019.990 39.611 0.039 o
4 0 2 5685.690 5769.160 34.496 0.091 o
4 0 3 1235.220 1290.760 17.762 1.684 o
4 0 4 182.740 185.900 7.678 41.478 o
4 0 5 0.799 1.897 5.761 451.062 o
4 0 6 92.973 96.818 6.817 93.599 o
4 0 7 32.196 33.723 4.832 283.779 o
4 0 8 105.130 109.543 8.353 73.375 o
4 0 9 82.585 78.597 8.587 90.437 o
4 0 10 19.592 15.258 11.463 104.497 o
4 1 0 57.290 85.424 4.714 159.529 o
4 1 1 1116.550 1226.090 15.512 1.980 o
4 1 2 1076.640 1029.530 15.180 2.306 o
4 1 3 302.722 295.080 8.998 20.119 o
4 1 4 338.074 344.306 10.211 16.248 o
4 1 5 267.334 224.562 9.204 25.568 o
4 1 6 0.807 -1.614 7.101 302.554 o
4 1 7 5.765 0.958 8.001 228.413 o
4 1 8 0.064 -0.117 9.624 166.014 o
4 1 9 10.008 10.299 10.583 127.773 o
4 1 10 4.623 -4.949 11.903 106.722 o
4 2 0 8702.990 8977.200 40.609 0.039 o
4 2 1 3987.840 4118.610 29.146 0.181 o
4 2 2 1806.910 1947.300 21.605 0.808 o
4 2 3 310.217 347.230 10.025 17.659 o
4 2 4 27.321 47.895 4.607 286.317 o
4 2 5 48.780 57.686 5.223 189.850 o
4 2 6 226.816 261.533 11.072 25.982 o
4 2 7 290.121 307.453 12.969 18.405 o
4 2 8 209.408 255.078 12.470 26.409 o
4 2 9 80.896 69.198 8.069 99.389 o
4 2 10 29.217 25.488 12.852 80.576 o
4 3 0 4285.770 4376.060 29.938 0.158 o
4 3 1 301.847 292.469 8.480 20.508 o
4 3 2 303.849 324.402 9.419 18.930 o
4 3 3 55.228 52.942 4.616 195.662 o
4 3 4 51.529 49.920 4.616 207.647 o
4 3 5 359.194 424.066 13.106 12.903 o
4 3 6 194.309 179.581 9.781 36.419 o
4 3 7 141.097 162.270 10.152 46.874 o
4 3 8 69.681 49.402 6.886 132.304 o
4 3 9 3.273 0.949 10.984 125.446 o
4 3 10 7.067 6.035 12.323 97.763 o
4 4 0 822.339 803.739 13.722 3.709 o
4 4 1 217.008 208.806 7.658 33.818 o
4 4 2 87.250 87.683 5.418 113.388 o
4 4 3 0.708 -3.296 5.868 441.930 o
4 4 4 74.399 68.298 5.673 134.019 o
4 4 5 53.131 45.235 5.712 181.485 o
4 4 6 19.605 10.759 8.509 177.237 o
4 4 7 51.384 40.237 6.005 181.822 o
4 4 8 21.781 14.231 10.504 120.903 o
4 4 9 3.088 -3.599 11.786 109.460 o
4 5 0 2701.790 2920.440 27.474 0.372 o
4 5 1 671.919 684.416 13.967 5.124 o
4 5 2 320.786 326.867 10.406 17.482 o
4 5 3 81.438 97.317 6.670 102.754 o
4 5 4 352.339 402.940 12.861 13.572 o
4 5 5 562.570 598.073 16.637 6.489 o
4 5 6 383.399 441.349 15.316 11.330 o
4 5 7 105.920 92.661 8.421 76.334 o
4 5 8 61.545 64.190 6.964 131.864 o
4 5 9 8.081 7.199 11.932 103.403 o
4 6 0 150.363 156.313 7.169 53.776 o
4 6 1 0.704 -1.633 5.810 450.830 o
4 6 2 16.806 21.752 3.961 483.818 o
4 6 3 142.334 166.612 8.656 50.405 o
4 6 4 253.474 276.057 11.453 22.802 o
4 6 5 236.157 274.717 11.883 23.857 o
4 6 6 78.726 50.448 6.661 125.670 o
4 6 7 38.735 29.479 10.993 99.229 o
4 6 8 12.959 5.311 11.473 109.649 o
4 7 0 112.528 95.664 6.103 86.571 o
4 7 1 24.339 19.659 3.570 464.562 o
4 7 2 12.860 2.699 6.807 283.906 o
4 7 3 15.970 10.602 7.443 227.987 o
4 7 4 39.907 28.980 5.193 248.761 o
4 7 5 78.188 68.689 7.091 112.358 o
4 7 6 34.301 25.889 10.455 110.786 o
4 7 7 8.426 -0.264 11.091 120.592 o
4 7 8 1.647 -0.029 11.766 110.423 o
4 8 0 293.538 355.593 11.610 17.632 o
4 8 1 195.069 218.684 9.565 33.787 o
4 8 2 214.295 242.686 10.279 29.024 o
4 8 3 784.382 840.426 19.590 3.639 o
4 8 4 469.124 518.332 16.480 8.424 o
4 8 5 294.508 321.586 13.849 17.319 o
4 8 6 60.091 58.899 6.895 137.456 o
4 8 7 25.403 13.634 11.893 95.831 o
4 9 0 73.063 68.151 5.907 132.505 o
4 9 1 69.087 70.097 6.103 133.216 o
4 9 2 200.787 230.567 10.778 30.639 o
4 9 3 252.040 281.006 12.773 21.698 o
4 9 4 92.233 89.101 7.688 89.567 o
4 9 5 29.285 11.619 10.319 120.681 o
4 9 6 7.902 5.790 11.052 120.151 o
4 9 7 10.874 7.423 12.245 97.351 o
4 10 0 34.912 24.207 8.186 159.600 o
4 10 1 70.968 57.451 6.132 137.946 o
4 10 2 51.923 41.900 5.956 180.612 o
4 10 3 131.428 116.213 8.861 59.909 o
4 10 4 39.612 31.200 10.543 104.891 o
4 10 5 16.468 6.915 10.729 121.728 o
4 10 6 0.077 -2.034 11.561 115.060 o
4 11 0 195.115 229.081 10.993 31.107 o
4 11 1 386.643 437.290 15.316 11.298 o
4 11 2 382.730 422.815 15.541 11.539 o
4 11 3 212.316 225.491 12.040 28.055 o
4 11 4 51.591 39.866 5.888 184.833 o
4 11 5 16.673 8.714 11.805 101.677 o
4 11 6 11.380 7.081 12.646 91.460 o
4 12 0 56.225 40.179 5.800 178.332 o
4 12 1 89.002 74.166 7.864 94.557 o
4 12 2 95.768 95.263 8.353 80.977 o
4 12 3 34.686 22.143 11.033 102.435 o
4 12 4 10.969 5.898 11.375 112.232 o
4 12 5 21.642 12.871 12.715 86.406 o
4 13 0 75.746 59.994 6.886 120.915 o
4 13 1 23.856 9.301 10.446 122.328 o
4 13 2 19.471 9.683 11.023 113.555 o
4 13 3 14.770 11.345 11.727 103.179 o
4 13 4 0.778 -1.125 12.079 105.136 o
4 14 0 208.525 212.151 12.509 28.510 o
4 14 1 126.769 149.193 10.690 49.792 o
4 14 2 80.859 64.004 7.648 105.752 o
4 14 3 28.404 26.232 13.037 78.721 o
4 15 0 40.210 26.613 12.509 80.671 o
4 15 1 25.786 22.221 12.529 85.843 o
4 15 2 4.823 1.144 12.705 93.630 o
4 16 0 17.495 5.409 12.470 92.152 o
5 -20 2 72.084 68.327 8.617 99.528 o
5 -19 0 79.837 75.066 8.705 91.902 o
5 -19 1 29.155 15.796 12.480 86.381 o
5 -19 2 13.985 7.805 11.942 100.781 o
5 -19 3 2.222 -2.944 12.157 103.260 o
5 -19 4 0.701 2.924 11.717 111.122 o
5 -19 5 2.334 3.912 12.157 102.499 o
5 -18 0 16.853 10.084 11.434 107.433 o
5 -18 1 33.335 16.627 11.610 95.961 o
5 -18 2 39.950 32.208 11.698 88.933 o
5 -18 3 26.344 19.072 11.521 99.711 o
5 -18 4 7.011 2.044 11.101 120.594 o
5 -18 5 0.036 -0.108 11.756 111.281 o
5 -18 6 0.011 -5.242 12.372 100.483 o
5 -17 0 353.945 434.326 16.842 11.799 o
5 -17 1 167.281 193.108 11.463 36.368 o
5 -17 2 127.191 150.914 10.446 50.339 o
5 -17 3 14.872 12.226 10.230 131.970 o
5 -17 4 15.081 8.666 10.495 127.050 o
5 -17 5 43.244 37.518 6.954 172.560 o
5 -17 6 43.405 44.854 6.514 178.260 o
5 -17 7 50.220 52.101 7.521 140.928 o
5 -16 0 40.873 25.713 5.203 250.403 o
5 -16 1 0.076 1.819 9.096 184.770 o
5 -16 2 11.563 10.289 9.448 156.042 o
5 -16 3 1.372 4.714 9.106 181.212 o
5 -16 4 48.337 46.575 6.123 178.601 o
5 -16 5 133.933 135.393 10.113 51.741 o
5 -16 6 35.017 29.625 11.531 93.564 o
5 -16 7 32.699 23.904 11.795 92.229 o
5 -16 8 4.358 7.609 11.864 105.978 o
5 -15 0 167.181 168.118 10.025 41.447 o
5 -15 1 51.717 45.636 5.497 189.179 o
5 -15 2 17.300 7.120 8.529 181.916 o
5 -15 3 9.082 5.722 8.881 180.123 o
5 -15 4 0.639 -1.340 9.389 173.823 o
5 -15 5 39.706 32.286 6.005 213.534 o
5 -15 6 21.208 16.471 10.465 121.347 o
5 -15 7 23.565 18.808 11.111 107.558 o
5 -15 8 16.212 8.137 11.707 103.565 o
5 -15 9 4.481 2.954 12.206 101.086 o
5 -14 0 187.316 225.139 10.504 33.030 o
5 -14 1 20.211 21.136 8.225 179.336 o
5 -14 2 142.582 156.568 9.076 50.364 o
5 -14 3 178.775 177.889 9.722 39.173 o
5 -14 4 198.813 226.880 11.326 30.349 o
5 -14 5 321.528 383.242 14.593 14.463 o
5 -14 6 32.422 27.395 5.086 281.837 o
5 -14 7 30.657 28.863 5.213 278.953 o
5 -14 8 7.655 5.829 10.984 121.708 o
5 -14 9 4.124 2.856 11.825 107.733 o
5 -13 0 70.969 50.693 5.868 146.337 o
5 -13 1 132.099 127.607 7.971 61.398 o
5 -13 2 152.783 176.686 9.106 45.612 o
5 -13 3 138.926 142.131 8.685 54.464 o
5 -13 4 182.433 195.885 10.035 36.553 o
5 -13 5 31.321 19.180 9.047 143.966 o
5 -13 6 28.560 19.326 9.468 136.413 o
5 -13 7 3.851 -0.587 9.849 155.312 o
5 -13 8 5.420 2.690 10.328 139.465 o
5 -13 9 17.584 15.717 11.580 103.393 o
5 -13 10 5.880 8.343 12.617 93.429 o
5 -12 0 235.017 228.240 9.810 28.066 o
5 -12 1 338.839 370.987 12.206 14.918 o
5 -12 2 179.486 155.433 8.441 43.738 o
5 -12 3 110.428 109.748 7.414 76.325 o
5 -12 4 84.826 78.626 6.749 106.604 o
5 -12 5 67.536 63.046 6.220 137.358 o
5 -12 6 14.044 3.717 8.695 182.174 o
5 -12 7 27.139 23.346 9.653 131.784 o
5 -12 8 2.165 5.379 9.918 152.397 o
5 -12 9 1.692 0.694 11.003 125.940 o
5 -12 10 4.431 1.672 12.177 101.817 o
5 -11 0 121.428 126.844 7.296 68.319 o
5 -11 1 405.653 451.863 12.705 11.194 o
5 -11 2 369.837 330.672 11.081 14.847 o
5 -11 3 595.467 645.108 15.776 5.929 o
5 -11 4 575.521 634.760 16.070 6.178 o
5 -11 5 56.556 60.180 5.819 160.918 o
5 -11 6 84.264 82.930 7.052 102.422 o
5 -11 7 91.476 99.684 8.010 84.536 o
5 -11 8 21.745 21.605 9.986 129.259 o
5 -11 9 65.603 60.307 7.551 120.967 o
5 -11 10 25.307 17.781 12.412 88.184 o
5 -10 0 268.602 261.278 9.585 23.561 o
5 -10 1 401.402 371.124 11.189 12.881 o
5 -10 2 359.876 345.802 10.886 15.010 o
5 -10 3 262.654 257.533 10.045 23.881 o
5 -10 4 35.490 28.755 4.783 283.103 o
5 -10 5 4.399 2.210 6.964 299.119 o
5 -10 6 10.091 6.220 7.883 221.647 o
5 -10 7 51.150 51.250 5.741 178.916 o
5 -10 8 6.645 5.379 9.380 165.352 o
5 -10 9 15.811 8.040 10.632 123.831 o
5 -10 10 2.511 3.286 11.541 113.609 o
5 -9 0 695.765 702.833 14.553 4.826 o
5 -9 1 1010.260 934.711 16.637 2.614 o
5 -9 2 542.426 556.926 13.243 7.339 o
5 -9 3 175.437 175.434 7.991 43.420 o
5 -9 4 97.412 106.198 6.700 88.704 o
5 -9 5 40.736 34.095 4.685 258.890 o
5 -9 6 15.168 11.962 7.864 208.342 o
5 -9 7 23.060 10.005 8.783 164.537 o
5 -9 8 7.761 6.983 9.321 165.374 o
5 -9 9 24.107 14.319 10.651 116.638 o
5 -9 10 18.882 14.426 11.688 101.404 o
5 -8 0 1567.400 1546.430 20.441 1.116 o
5 -8 1 1373.540 1340.540 18.955 1.440 o
5 -8 2 1613.080 1601.180 21.742 1.051 o
5 -8 3 168.321 190.927 8.020 43.233 o
5 -8 4 223.500 231.839 9.204 29.773 o
5 -8 5 248.619 299.941 10.847 22.716 o
5 -8 6 164.432 171.141 8.832 44.379 o
5 -8 7 237.289 275.441 12.167 23.490 o
5 -8 8 144.253 158.680 9.790 47.623 o
5 -8 9 82.841 82.578 8.010 94.425 o
5 -8 10 18.567 15.835 11.707 100.935 o
5 -8 11 0.782 1.056 12.431 99.101 o
5 -7 0 12.203 14.104 2.924 793.196 o
5 -7 1 125.373 103.576 5.428 80.446 o
5 -7 2 340.179 346.458 9.810 16.233 o
5 -7 3 67.727 75.007 5.203 144.608 o
5 -7 4 60.465 54.664 4.959 176.083 o
5 -7 5 94.366 84.142 6.260 101.577 o
5 -7 6 109.493 101.307 7.208 80.061 o
5 -7 7 23.078 19.336 8.333 173.115 o
5 -7 8 17.860 14.172 9.252 153.873 o
5 -7 9 0.513 1.477 9.761 160.345 o
5 -7 10 6.640 4.313 11.081 120.601 o
5 -7 11 0.004 -1.252 12.539 97.838 o
5 -6 0 839.335 774.202 13.077 3.713 o
5 -6 1 80.527 53.940 3.981 157.942 o
5 -6 2 283.436 285.456 8.568 22.048 o
5 -6 3 2.877 4.460 5.252 507.658 o
5 -6 4 241.361 247.390 9.194 26.994 o
5 -6 5 24.030 20.979 3.932 426.545 o
5 -6 6 367.003 394.568 13.331 13.068 o
5 -6 7 123.851 126.571 8.372 62.763 o
5 -6 8 144.325 154.846 9.859 47.836 o
5 -6 9 32.346 27.014 10.583 109.474 o
5 -6 10 5.981 4.724 10.954 123.561 o
5 -6 11 5.491 1.604 12.529 95.938 o
5 -5 0 3123.800 3015.670 25.185 0.304 o
5 -5 1 480.484 415.870 9.722 10.234 o
5 -5 2 1012.610 1060.790 16.011 2.428 o
5 -5 3 662.049 673.911 13.634 5.272 o
5 -5 4 927.138 965.373 17.468 2.826 o
5 -5 5 841.358 869.582 17.908 3.348 o
5 -5 6 502.118 591.060 15.502 7.447 o
5 -5 7 185.580 215.183 10.543 33.866 o
5 -5 8 63.365 74.225 7.169 122.028 o
5 -5 9 2.844 4.049 9.810 155.658 o
5 -5 10 1.396 2.318 10.974 126.324 o
5 -5 11 15.403 9.565 12.940 86.010 o
5 -4 0 857.220 854.774 12.959 3.423 o
5 -4 1 5.746 13.458 2.641 1113.840 o
5 -4 2 24.307 32.520 3.492 416.317 o
5 -4 3 95.468 79.546 5.076 112.546 o
5 -4 4 63.406 46.996 4.871 179.527 o
5 -4 5 19.157 18.417 6.533 259.708 o
5 -4 6 11.194 3.990 7.228 258.567 o
5 -4 7 0.600 -0.822 7.981 240.315 o
5 -4 8 1.347 1.144 8.724 199.459 o
5 -4 9 0.995 -6.191 10.123 149.352 o
5 -4 10 2.156 2.298 11.189 121.180 o
5 -3 0 147.298 131.960 5.477 63.618 o
5 -3 1 1048.780 1122.330 15.170 2.258 o
5 -3 2 880.091 887.519 14.407 3.218 o
5 -3 3 525.499 540.886 12.040 7.835 o
5 -3 4 806.706 815.417 15.942 3.702 o
5 -3 5 530.530 549.600 13.957 7.499 o
5 -3 6 367.434 425.690 13.262 12.566 o
5 -3 7 131.904 147.442 9.018 54.542 o
5 -3 8 64.058 70.469 7.091 124.253 o
5 -3 9 26.990 16.852 10.377 119.340 o
5 -3 10 18.666 12.363 11.756 100.863 o
5 -2 0 676.344 529.980 10.094 6.019 o
5 -2 1 1296.100 1286.010 16.461 1.600 o
5 -2 2 1059.430 1052.580 15.571 2.316 o
5 -2 3 641.619 691.917 13.683 5.373 o
5 -2 4 1832.850 2082.550 25.811 0.751 o
5 -2 5 398.304 481.694 13.556 10.819 o
5 -2 6 462.836 577.788 15.825 8.121 o
5 -2 7 70.634 78.606 7.042 115.152 o
5 -2 8 6.374 0.293 9.155 176.212 o
5 -2 9 52.230 48.003 6.348 165.688 o
5 -2 10 28.197 18.006 12.187 89.988 o
5 -1 0 48.032 50.458 3.863 236.862 o
5 -1 1 35.810 35.836 3.668 321.756 o
5 -1 2 100.136 101.425 5.379 97.440 o
5 -1 3 364.474 374.899 10.387 14.373 o
5 -1 4 156.891 170.524 7.981 48.121 o
5 -1 5 7.906 6.768 6.602 309.239 o
5 -1 6 0.313 2.856 7.189 292.491 o
5 -1 7 21.378 16.558 8.509 171.321 o
5 -1 8 2.485 3.003 9.057 182.827 o
5 -1 9 11.458 3.247 10.583 129.070 o
5 -1 10 10.973 6.445 11.698 106.329 o
5 0 0 700.778 694.568 11.903 4.928 o
5 0 1 2148.700 2167.900 22.075 0.607 o
5 0 2 1425.090 1472.930 19.434 1.297 o
5 0 3 1207.200 1199.090 18.544 1.806 o
5 0 4 2311.000 2457.320 28.579 0.506 o
5 0 5 298.655 303.531 10.974 19.122 o
5 0 6 354.214 402.158 13.595 13.293 o
5 0 7 90.516 76.298 7.189 99.037 o
5 0 8 19.443 14.123 9.781 138.568 o
5 0 9 24.951 18.877 11.218 105.094 o
5 0 10 2.620 1.956 11.952 106.269 o
5 1 0 2037.740 2164.240 21.654 0.650 o
5 1 1 1302.810 1488.150 18.974 1.436 o
5 1 2 2278.830 2333.310 24.774 0.536 o
5 1 3 1690.780 1892.510 24.295 0.885 o
5 1 4 593.457 680.230 15.639 5.778 o
5 1 5 270.696 340.521 11.835 19.217 o
5 1 6 25.535 23.121 8.411 165.219 o
5 1 7 94.604 96.466 7.717 85.890 o
5 1 8 109.495 103.870 8.519 71.770 o
5 1 9 65.557 54.116 7.609 122.956 o
5 1 10 28.526 18.065 13.135 78.800 o
5 2 0 34.476 41.059 3.893 304.717 o
5 2 1 13.076 4.264 4.832 484.163 o
5 2 2 268.632 313.614 9.644 21.498 o
5 2 3 118.828 110.452 6.768 75.581 o
5 2 4 2.649 -0.078 6.573 344.952 o
5 2 5 1.960 -3.247 7.472 270.507 o
5 2 6 24.994 13.331 8.353 173.886 o
5 2 7 15.662 5.526 9.106 164.950 o
5 2 8 39.989 34.545 5.898 214.101 o
5 2 9 1.393 -2.025 11.668 112.380 o
5 3 0 1749.630 1842.350 21.674 0.871 o
5 3 1 817.802 833.990 15.316 3.614 o
5 3 2 1422.240 1458.870 21.185 1.300 o
5 3 3 1051.120 1051.060 19.405 2.294 o
5 3 4 395.839 440.302 13.331 11.486 o
5 3 5 330.027 323.943 12.333 16.284 o
5 3 6 136.254 135.070 9.135 54.637 o
5 3 7 39.035 25.742 10.172 112.735 o
5 3 8 24.309 14.221 10.954 111.037 o
5 3 9 21.629 15.395 12.245 92.047 o
5 4 0 1716.520 1731.230 22.134 0.926 o
5 4 1 2500.850 2637.590 28.129 0.438 o
5 4 2 2097.810 2140.190 26.779 0.625 o
5 4 3 872.790 978.958 19.405 2.959 o
5 4 4 168.154 176.002 8.871 43.038 o
5 4 5 174.230 183.161 10.054 38.844 o
5 4 6 174.770 185.009 10.602 37.536 o
5 4 7 87.961 77.012 7.492 97.738 o
5 4 8 57.147 39.093 6.328 165.424 o
5 4 9 16.152 14.837 12.842 86.218 o
5 5 0 402.383 431.490 11.737 11.776 o
5 5 1 306.216 292.459 10.475 19.256 o
5 5 2 12.149 12.578 6.876 266.945 o
5 5 3 37.241 23.689 4.039 325.908 o
5 5 4 87.288 48.942 5.546 131.936 o
5 5 5 0.465 -1.760 8.362 219.208 o
5 5 6 14.753 6.260 9.331 158.457 o
5 5 7 21.084 9.898 10.788 117.039 o
5 5 8 0.516 2.073 11.698 111.752 o
5 6 0 1114.410 1172.380 19.698 2.002 o
5 6 1 1110.830 1134.210 20.168 2.046 o
5 6 2 805.543 822.488 17.947 3.631 o
5 6 3 270.887 281.827 11.248 21.465 o
5 6 4 254.825 261.288 11.678 23.087 o
5 6 5 19.774 15.972 9.340 148.769 o
5 6 6 27.662 16.920 10.270 120.975 o
5 6 7 22.629 15.913 11.600 100.839 o
5 6 8 22.971 20.050 12.676 85.337 o
5 7 0 1713.690 1831.680 25.860 0.886 o
5 7 1 892.160 976.347 19.659 2.887 o
5 7 2 102.871 114.364 7.580 77.879 o
5 7 3 191.005 211.085 10.348 33.712 o
5 7 4 126.297 124.341 8.372 62.306 o
5 7 5 194.853 212.200 11.287 31.734 o
5 7 6 71.817 45.421 6.612 136.482 o
5 7 7 68.431 61.989 8.372 107.015 o
5 8 0 36.109 24.139 4.861 285.688 o
5 8 1 11.276 7.052 7.609 232.751 o
5 8 2 32.538 18.524 8.470 157.988 o
5 8 3 0.386 -0.313 8.617 206.616 o
5 8 4 38.597 27.239 4.910 268.357 o
5 8 5 15.525 11.883 10.397 127.883 o
5 8 6 1.795 0.655 11.345 118.476 o
5 8 7 1.271 -0.215 12.480 98.342 o
5 9 0 395.994 419.548 13.654 11.698 o
5 9 1 281.014 299.491 12.030 19.718 o
5 9 2 179.411 184.051 10.133 37.775 o
5 9 3 79.672 65.452 6.690 117.207 o
5 9 4 48.323 36.902 5.898 193.706 o
5 9 5 50.735 37.205 6.103 183.160 o
5 9 6 42.144 35.200 13.057 73.429 o
5 10 0 198.480 213.207 10.661 32.134 o
5 10 1 65.561 56.493 6.230 143.584 o
5 10 2 173.503 179.454 10.788 37.802 o
5 10 3 124.239 119.167 8.988 61.203 o
5 10 4 82.760 66.596 7.668 103.209 o
5 10 5 39.707 36.345 12.656 77.799 o
5 11 0 11.573 11.590 8.910 172.648 o
5 11 1 6.739 3.990 9.282 169.287 o
5 11 2 16.324 11.678 9.869 139.825 o
5 11 3 8.523 5.399 10.720 127.098 o
5 11 4 0.065 -7.257 11.874 109.081 o
5 11 5 0.033 -0.098 12.333 101.114 o
5 12 0 159.674 173.087 10.632 40.964 o
5 12 1 65.901 52.062 6.602 139.645 o
5 12 2 36.354 20.079 11.424 96.494 o
5 12 3 55.093 43.269 6.954 151.803 o
5 12 4 31.962 23.385 12.744 81.237 o
5 13 0 84.798 84.622 8.196 90.952 o
5 13 1 63.548 57.040 7.228 129.332 o
5 13 2 72.908 66.136 7.795 109.249 o
5 13 3 37.004 32.413 13.399 72.046 o
5 14 0 4.455 2.210 11.238 119.010 o
5 14 1 7.005 2.396 11.942 104.619 o
5 14 2 0.004 -0.646 12.500 98.452 o
5 15 0 47.788 35.376 13.086 71.603 o
6 -19 0 33.334 32.168 12.695 79.993 o
6 -19 1 30.442 33.782 12.500 82.774 o
6 -19 2 25.679 16.167 12.304 89.702 o
6 -19 3 73.269 55.974 7.492 116.939 o
6 -19 4 19.752 11.306 12.539 89.500 o
6 -18 0 108.349 109.171 8.920 68.922 o
6 -18 1 85.893 82.548 8.167 91.177 o
6 -18 2 64.456 53.832 6.983 133.973 o
6 -18 3 53.499 54.810 7.287 140.223 o
6 -18 4 0.239 -0.440 11.502 116.163 o
6 -18 5 6.430 4.303 12.030 102.993 o
6 -18 6 7.519 8.157 12.500 94.618 o
6 -17 0 3.245 -0.929 10.475 138.035 o
6 -17 1 9.605 4.861 10.221 138.521 o
6 -17 2 25.296 13.605 10.807 113.281 o
6 -17 3 32.797 13.204 10.886 107.990 o
6 -17 4 33.280 17.713 11.091 103.324 o
6 -17 5 0.039 -2.924 11.443 117.449 o
6 -17 6 0.010 -4.724 12.079 105.425 o
6 -17 7 0.573 -1.027 12.500 98.265 o
6 -16 0 202.626 226.411 11.893 29.196 o
6 -16 1 207.676 239.927 11.942 27.916 o
6 -16 2 119.193 129.348 9.125 60.590 o
6 -16 3 79.671 73.697 7.247 107.383 o
6 -16 4 7.381 6.162 10.035 144.590 o
6 -16 5 62.176 46.556 6.749 144.852 o
6 -16 6 23.585 20.226 11.668 98.478 o
6 -16 7 26.982 23.972 12.128 90.098 o
6 -16 8 22.348 18.935 13.086 80.937 o
6 -15 0 128.604 120.663 8.529 61.489 o
6 -15 1 139.198 156.822 9.663 49.372 o
6 -15 2 11.158 8.519 9.194 165.269 o
6 -15 3 31.711 28.549 4.871 293.896 o
6 -15 4 45.114 33.890 5.428 218.831 o
6 -15 5 153.537 174.554 10.817 41.479 o
6 -15 6 43.720 39.866 6.044 195.612 o
6 -15 7 10.037 13.693 11.326 111.714 o
6 -15 8 0.387 -2.347 12.128 104.436 o
6 -14 0 191.317 199.856 10.309 34.504 o
6 -14 1 8.531 4.861 8.157 212.150 o
6 -14 2 79.863 57.236 6.436 124.104 o
6 -14 3 15.579 4.890 8.617 182.371 o
6 -14 4 12.290 6.641 8.920 174.348 o
6 -14 5 22.694 15.473 9.683 137.781 o
6 -14 6 2.753 -1.956 10.123 148.017 o
6 -14 7 28.376 13.419 10.944 109.275 o
6 -14 8 23.375 11.551 11.952 96.200 o
6 -14 9 0.282 1.037 12.275 101.812 o
6 -13 0 421.972 469.908 14.573 10.182 o
6 -13 1 238.270 262.247 11.248 24.765 o
6 -13 2 355.150 382.372 13.448 13.653 o
6 -13 3 286.068 308.998 12.421 18.904 o
6 -13 4 234.005 276.037 11.971 23.899 o
6 -13 5 213.271 214.870 11.316 29.418 o
6 -13 6 69.250 77.570 7.404 112.360 o
6 -13 7 47.591 34.789 5.956 195.570 o
6 -13 8 27.996 31.102 11.590 95.429 o
6 -13 9 1.621 2.386 11.717 110.845 o
6 -12 0 111.846 118.081 7.648 72.510 o
6 -12 1 197.913 196.668 9.526 35.007 o
6 -12 2 73.070 67.799 5.956 132.036 o
6 -12 3 223.286 217.941 10.221 29.467 o
6 -12 4 301.866 345.812 12.881 16.857 o
6 -12 5 28.283 27.024 9.164 140.342 o
6 -12 6 6.563 9.233 9.184 170.084 o
6 -12 7 2.927 3.071 9.839 155.099 o
6 -12 8 3.728 3.237 10.543 134.920 o
6 -12 9 9.093 4.157 11.815 105.588 o
6 -11 0 579.980 609.457 15.326 6.330 o
6 -11 1 82.530 70.753 5.878 121.393 o
6 -11 2 0.083 0.606 6.582 353.386 o
6 -11 3 6.220 4.030 7.287 267.385 o
6 -11 4 1.784 3.325 7.678 253.132 o
6 -11 5 131.440 107.019 7.932 65.466 o
6 -11 6 95.846 83.448 7.414 91.294 o
6 -11 7 16.904 7.521 9.634 147.183 o
6 -11 8 0.102 -0.225 10.191 148.025 o
6 -11 9 0.001 -2.563 11.316 120.122 o
6 -11 10 0.101 2.426 12.490 98.175 o
6 -10 0 526.590 571.235 14.074 7.385 o
6 -10 1 557.369 591.764 14.426 6.789 o
6 -10 2 610.973 546.695 14.299 6.415 o
6 -10 3 1204.510 1334.320 22.779 1.662 o
6 -10 4 544.243 591.070 16.030 6.816 o
6 -10 5 396.333 456.117 14.524 10.988 o
6 -10 6 137.134 151.139 9.204 52.028 o
6 -10 7 45.771 42.418 5.663 200.121 o
6 -10 8 21.236 16.089 10.387 123.033 o
6 -10 9 33.644 25.205 11.795 91.596 o
6 -10 10 44.930 33.068 7.218 166.374 o
6 -9 0 550.870 622.172 14.025 6.712 o
6 -9 1 878.426 898.121 17.145 3.145 o
6 -9 2 1375.290 1479.940 22.407 1.335 o
6 -9 3 302.591 306.103 10.954 18.823 o
6 -9 4 39.171 34.936 5.017 249.078 o
6 -9 5 2.788 -4.753 7.727 251.472 o
6 -9 6 41.049 34.936 4.773 252.918 o
6 -9 7 9.077 5.829 8.842 181.538 o
6 -9 8 94.574 88.152 8.030 85.824 o
6 -9 9 66.205 54.742 7.218 127.973 o
6 -9 10 25.686 19.277 12.842 82.673 o
6 -8 0 64.323 68.689 5.096 155.560 o
6 -8 1 0.305 -0.949 5.624 483.929 o
6 -8 2 13.384 5.986 6.338 312.115 o
6 -8 3 542.024 584.556 14.456 7.037 o
6 -8 4 546.372 571.753 15.023 7.012 o
6 -8 5 227.690 235.037 10.563 27.700 o
6 -8 6 4.683 -1.037 7.756 245.563 o
6 -8 7 3.900 -0.587 8.871 190.475 o
6 -8 8 7.947 7.306 9.820 149.690 o
6 -8 9 1.365 2.729 10.817 129.861 o
6 -8 10 17.033 16.070 12.588 88.974 o
6 -7 0 1870.430 1869.510 22.701 0.792 o
6 -7 1 2262.670 2047.440 23.933 0.587 o
6 -7 2 2005.820 2147.450 25.615 0.661 o
6 -7 3 1292.130 1407.020 21.537 1.489 o
6 -7 4 556.917 668.141 15.668 6.231 o
6 -7 5 110.294 122.893 8.001 70.321 o
6 -7 6 72.053 72.640 6.299 125.985 o
6 -7 7 144.525 169.850 9.849 46.182 o
6 -7 8 195.283 226.479 12.226 29.526 o
6 -7 9 92.735 111.244 9.575 70.671 o
6 -7 10 22.259 17.233 12.431 89.063 o
6 -6 0 1681.440 1605.070 20.256 1.000 o
6 -6 1 1430.000 1392.430 19.209 1.338 o
6 -6 2 177.981 156.245 7.257 46.431 o
6 -6 3 0.351 -0.020 5.917 437.035 o
6 -6 4 138.703 138.914 7.560 58.821 o
6 -6 5 85.412 91.918 6.475 103.563 o
6 -6 6 420.016 441.026 14.456 10.597 o
6 -6 7 254.013 286.307 12.421 21.648 o
6 -6 8 167.228 173.067 10.817 39.263 o
6 -6 9 11.478 6.602 10.856 122.046 o
6 -6 10 0.034 1.584 11.688 112.250 o
6 -5 0 10.542 4.939 4.646 535.423 o
6 -5 1 194.409 199.583 7.521 38.313 o
6 -5 2 2205.980 2357.670 25.977 0.553 o
6 -5 3 729.885 792.335 15.776 4.220 o
6 -5 4 3.997 3.159 6.103 382.472 o
6 -5 5 17.606 11.130 7.140 239.510 o
6 -5 6 2.587 -1.056 7.981 236.445 o
6 -5 7 1.872 1.702 8.754 197.060 o
6 -5 8 33.370 27.562 10.504 110.028 o
6 -5 9 20.751 13.380 11.013 112.089 o
6 -5 10 6.026 3.766 11.922 105.069 o
6 -4 0 4336.960 4071.860 31.581 0.163 o
6 -4 1 4112.020 4203.210 32.550 0.171 o
6 -4 2 2055.090 2296.190 25.165 0.614 o
6 -4 3 759.081 845.561 16.216 3.871 o
6 -4 4 46.001 41.264 4.714 230.490 o
6 -4 5 551.796 648.257 15.972 6.379 o
6 -4 6 311.263 335.366 12.940 16.629 o
6 -4 7 279.120 333.899 13.996 17.701 o
6 -4 8 110.444 117.465 9.125 65.531 o
6 -4 9 21.676 16.705 11.023 110.565 o
6 -4 10 11.478 4.538 12.148 99.155 o
6 -3 0 30.159 17.126 3.149 460.676 o
6 -3 1 125.477 133.143 6.348 69.300 o
6 -3 2 75.105 78.401 5.350 131.407 o
6 -3 3 31.117 31.053 3.971 342.887 o
6 -3 4 876.848 945.499 18.632 3.024 o
6 -3 5 465.668 521.285 14.573 8.743 o
6 -3 6 612.099 678.518 18.231 5.429 o
6 -3 7 108.606 98.676 8.186 75.222 o
6 -3 8 1.368 -6.837 10.064 150.800 o
6 -3 9 4.343 -0.010 10.876 127.559 o
6 -3 10 3.166 1.105 12.050 104.527 o
6 -2 0 2748.810 2938.160 26.007 0.364 o
6 -2 1 2051.330 2189.910 23.532 0.637 o
6 -2 2 114.551 123.675 6.338 76.564 o
6 -2 3 2.317 2.025 5.653 456.239 o
6 -2 4 32.593 19.855 4.343 341.902 o
6 -2 5 9.203 6.778 7.277 256.992 o
6 -2 6 17.998 26.124 8.871 158.588 o
6 -2 7 72.349 85.091 7.854 102.056 o
6 -2 8 48.376 36.081 6.025 190.765 o
6 -2 9 3.197 2.073 11.042 123.876 o
6 -2 10 0.374 -0.841 12.187 103.439 o
6 -1 0 2831.450 2987.460 26.359 0.346 o
6 -1 1 1308.770 1507.560 19.581 1.413 o
6 -1 2 48.200 43.739 4.460 228.791 o
6 -1 3 388.285 467.932 12.578 11.478 o
6 -1 4 1283.340 1394.870 22.906 1.501 o
6 -1 5 537.663 637.205 16.558 6.560 o
6 -1 6 492.534 543.321 16.568 7.822 o
6 -1 7 108.272 114.051 8.490 70.354 o
6 -1 8 17.163 7.482 10.211 132.481 o
6 -1 9 12.497 11.649 11.414 109.439 o
6 0 0 249.701 324.040 9.223 22.789 o
6 0 1 230.524 237.257 8.235 29.599 o
6 0 2 612.945 695.556 14.681 5.571 o
6 0 3 2171.570 2299.170 28.295 0.570 o
6 0 4 531.611 568.447 14.867 7.253 o
6 0 5 279.879 268.281 11.287 21.284 o
6 0 6 0.193 3.012 8.245 223.349 o
6 0 7 5.178 2.338 9.155 176.405 o
6 0 8 5.963 4.792 10.201 141.684 o
6 0 9 12.344 4.744 11.786 104.615 o
6 1 0 26.165 23.043 3.413 447.037 o
6 1 1 0.506 2.279 5.017 590.786 o
6 1 2 1.524 1.917 5.956 418.178 o
6 1 3 1.568 -3.071 7.032 305.971 o
6 1 4 152.104 170.104 8.920 46.952 o
6 1 5 90.816 88.915 7.179 94.670 o
6 1 6 85.453 90.294 7.678 93.392 o
6 1 7 17.990 12.353 9.605 144.957 o
6 1 8 7.270 1.663 10.563 132.676 o
6 1 9 0.543 -2.171 11.952 107.470 o
6 2 0 524.335 605.653 13.018 7.269 o
6 2 1 845.093 904.420 16.666 3.285 o
6 2 2 987.807 1026.380 18.554 2.514 o
6 2 3 1212.770 1368.860 22.456 1.625 o
6 2 4 317.634 339.601 12.314 16.507 o
6 2 5 164.351 191.015 9.878 40.219 o
6 2 6 65.216 58.077 6.162 144.161 o
6 2 7 17.629 13.106 10.094 132.882 o
6 2 8 25.853 12.236 11.355 104.045 o
6 2 9 19.965 14.534 12.627 87.774 o
6 3 0 371.167 356.150 10.534 14.439 o
6 3 1 964.235 985.531 17.713 2.663 o
6 3 2 698.607 744.997 16.558 4.559 o
6 3 3 147.247 134.131 7.834 55.999 o
6 3 4 4.488 3.766 7.472 259.654 o
6 3 5 8.424 6.543 8.294 204.610 o
6 3 6 17.914 7.110 9.380 153.562 o
6 3 7 21.472 13.233 10.661 118.309 o
6 3 8 17.582 11.120 11.844 100.199 o
6 4 0 31.108 19.757 4.196 360.614 o
6 4 1 0.426 2.699 6.416 365.402 o
6 4 2 273.519 271.949 10.856 21.894 o
6 4 3 136.832 129.847 8.118 58.914 o
6 4 4 184.314 195.152 10.191 36.053 o
6 4 5 38.287 28.197 4.665 279.139 o
6 4 6 4.477 0.900 9.693 159.297 o
6 4 7 0.551 -0.225 10.768 132.325 o
6 4 8 15.916 9.184 12.441 92.453 o
6 5 0 1112.510 1198.090 20.784 1.968 o
6 5 1 1402.430 1462.490 23.395 1.309 o
6 5 2 503.644 550.784 15.287 7.753 o
6 5 3 186.938 202.438 10.005 35.436 o
6 5 4 64.624 68.083 6.504 133.505 o
6 5 5 57.384 52.395 5.986 162.256 o
6 5 6 36.651 29.479 10.984 100.385 o
6 5 7 30.979 20.510 12.059 90.137 o
6 6 0 360.576 371.496 12.402 13.989 o
6 6 1 39.566 21.508 8.108 157.707 o
6 6 2 50.205 26.134 4.841 235.797 o
6 6 3 24.183 11.218 8.431 173.715 o
6 6 4 1.210 -1.897 8.939 190.973 o
6 6 5 63.573 44.140 6.054 157.810 o
6 6 6 21.793 10.798 11.101 110.649 o
6 6 7 15.784 11.962 12.392 92.700 o
6 7 0 459.984 453.682 14.143 9.597 o
6 7 1 360.440 379.134 13.116 13.629 o
6 7 2 133.509 143.706 8.714 55.678 o
6 7 3 45.794 39.739 5.438 209.867 o
6 7 4 0.151 -0.245 9.331 176.524 o
6 7 5 1.113 -3.893 10.749 132.469 o
6 7 6 20.427 14.016 11.746 99.934 o
6 8 0 269.072 272.027 11.746 21.591 o
6 8 1 82.451 85.932 7.130 101.897 o
6 8 2 13.404 16.431 8.832 170.370 o
6 8 3 102.436 100.867 8.020 78.617 o
6 8 4 86.947 78.372 7.766 95.423 o
6 8 5 91.364 75.281 8.128 90.447 o
6 8 6 93.452 103.048 10.005 69.249 o
6 9 0 22.579 14.935 8.597 168.028 o
6 9 1 25.533 11.541 8.949 156.087 o
6 9 2 20.323 13.908 9.448 146.347 o
6 9 3 101.217 105.679 8.783 73.282 o
6 9 4 46.252 29.459 12.079 82.755 o
6 9 5 6.215 2.142 12.079 102.677 o
6 10 0 94.042 86.666 7.590 90.001 o
6 10 1 49.666 38.408 5.995 186.917 o
6 10 2 2.700 1.330 9.878 154.815 o
6 10 3 7.040 2.386 10.759 127.991 o
6 10 4 66.782 58.341 7.854 116.518 o
6 11 0 40.142 36.540 5.673 219.320 o
6 11 1 77.045 80.778 8.001 98.807 o
6 11 2 90.948 85.834 8.137 87.603 o
6 11 3 124.142 124.350 10.250 55.143 o
6 11 4 66.424 52.923 7.903 118.410 o
6 12 0 9.285 2.924 10.524 131.922 o
6 12 1 55.122 35.738 12.079 78.605 o
6 12 2 39.913 27.180 12.607 79.649 o
6 12 3 4.588 1.976 12.588 95.294 o
6 13 0 11.201 -2.064 11.600 109.357 o
6 13 1 3.247 5.565 11.727 109.296 o
6 13 2 28.084 24.314 13.282 76.551 o
6 14 0 63.658 59.750 7.531 123.280 o
7 -19 0 17.056 9.595 12.509 91.066 o
7 -19 1 5.361 7.081 12.050 102.547 o
7 -19 2 3.481 2.338 12.216 101.401 o
7 -19 3 4.877 3.130 12.353 98.580 o
7 -18 0 2.274 3.286 11.345 117.609 o
7 -18 1 26.808 14.818 11.737 97.264 o
7 -18 2 63.786 50.693 7.335 130.584 o
7 -18 3 46.204 41.000 7.003 164.321 o
7 -18 4 36.653 25.165 12.734 79.637 o
7 -18 5 6.377 7.414 12.265 98.668 o
7 -17 0 188.101 205.637 12.363 31.278 o
7 -17 1 130.853 147.657 10.671 49.110 o
7 -17 2 206.081 234.900 13.037 26.972 o
7 -17 3 53.521 48.776 6.680 155.980 o
7 -17 4 3.391 -5.614 11.668 111.516 o
7 -17 5 22.402 17.194 12.001 94.789 o
7 -17 6 13.166 11.688 12.304 94.905 o
7 -16 0 8.616 3.981 10.152 141.334 o
7 -16 1 4.265 3.550 9.918 151.429 o
7 -16 2 5.243 -1.359 10.054 148.076 o
7 -16 3 9.652 1.545 10.094 143.031 o
7 -16 4 0.007 0.704 10.358 143.134 o
7 -16 5 27.897 16.441 11.473 100.337 o
7 -16 6 12.789 8.900 11.707 104.862 o
7 -16 7 7.820 1.399 12.539 95.062 o
7 -15 0 351.702 381.374 14.867 13.315 o
7 -15 1 199.159 225.628 11.795 29.743 o
7 -15 2 72.439 77.589 7.580 107.751 o
7 -15 3 62.746 42.125 5.722 167.356 o
7 -15 4 1.159 -0.929 10.211 146.681 o
7 -15 5 29.254 20.588 11.062 105.063 o
7 -15 6 25.479 15.747 11.727 97.764 o
7 -15 7 49.131 37.802 12.852 72.963 o
7 -14 0 411.440 449.574 15.659 10.440 o
7 -14 1 77.771 88.710 7.287 102.756 o
7 -14 2 30.255 19.864 9.204 140.869 o
7 -14 3 36.194 25.723 9.644 124.191 o
7 -14 4 121.705 126.590 8.998 60.779 o
7 -14 5 134.928 145.379 10.162 50.132 o
7 -14 6 84.668 94.295 8.480 85.932 o
7 -14 7 56.546 50.722 7.101 142.549 o
7 -14 8 22.623 19.307 12.803 84.049 o
7 -13 0 7.479 -0.391 8.137 219.016 o
7 -13 1 1.528 -0.557 8.059 233.948 o
7 -13 2 9.235 3.599 8.010 219.193 o
7 -13 3 23.375 15.170 8.861 158.981 o
7 -13 4 83.199 78.792 7.316 102.124 o
7 -13 5 5.222 -2.015 9.653 160.288 o
7 -13 6 0.202 -8.714 10.495 139.533 o
7 -13 7 0.086 -9.771 11.238 121.758 o
7 -13 8 0.101 -1.643 11.619 113.891 o
7 -12 0 141.250 136.253 8.333 55.824 o
7 -12 1 388.691 442.346 13.947 11.512 o
7 -12 2 136.740 118.169 7.658 62.648 o
7 -12 3 101.586 105.836 7.521 81.014 o
7 -12 4 130.229 142.973 9.213 54.931 o
7 -12 5 169.689 181.029 10.592 38.683 o
7 -12 6 157.108 184.520 11.375 38.750 o
7 -12 7 76.520 73.990 7.697 104.731 o
7 -12 8 1.631 3.687 11.248 119.851 o
7 -12 9 0.021 1.399 12.157 103.811 o
7 -11 0 13.664 22.730 4.000 505.764 o
7 -11 1 76.945 82.675 6.338 115.896 o
7 -11 2 158.235 142.190 8.177 50.809 o
7 -11 3 372.085 403.058 13.693 12.658 o
7 -11 4 405.265 460.871 14.974 10.604 o
7 -11 5 311.154 356.747 14.397 15.489 o
7 -11 6 109.618 114.100 8.392 70.331 o
7 -11 7 71.574 69.119 7.140 117.271 o
7 -11 8 0.062 -0.509 11.023 126.569 o
7 -11 9 2.389 -3.325 12.167 103.034 o
7 -10 0 0.515 9.145 6.729 320.568 o
7 -10 1 57.702 43.709 5.135 188.069 o
7 -10 2 357.648 341.949 11.932 14.837 o
7 -10 3 60.773 56.855 5.878 156.004 o
7 -10 4 0.958 -0.205 7.922 243.148 o
7 -10 5 17.415 13.086 8.705 171.848 o
7 -10 6 0.692 1.760 8.949 190.110 o
7 -10 7 0.210 -2.240 9.702 163.216 o
7 -10 8 0.003 -0.039 10.720 133.864 o
7 -10 9 4.773 -2.083 12.089 103.464 o
7 -9 0 107.048 117.210 7.042 78.239 o
7 -9 1 536.837 510.380 13.820 7.717 o
7 -9 2 524.940 582.483 15.052 7.230 o
7 -9 3 942.107 1056.650 20.813 2.568 o
7 -9 4 648.485 740.048 18.348 4.859 o
7 -9 5 328.837 386.421 14.113 14.311 o
7 -9 6 10.531 10.133 9.155 166.363 o
7 -9 7 1.746 3.365 9.428 169.583 o
7 -9 8 0.824 -0.196 10.583 136.827 o
7 -9 9 0.121 0.743 11.698 112.206 o
7 -8 0 1298.860 1410.580 21.400 1.479 o
7 -8 1 1122.640 1062.610 18.984 2.112 o
7 -8 2 1898.200 1994.740 27.229 0.738 o
7 -8 3 514.398 531.203 14.681 7.809 o
7 -8 4 420.924 457.095 13.957 10.481 o
7 -8 5 96.411 98.070 7.384 86.858 o
7 -8 6 5.291 6.377 8.617 195.159 o
7 -8 7 2.053 1.457 9.477 168.508 o
7 -8 8 22.971 23.327 11.160 105.925 o
7 -8 9 30.937 27.131 12.715 81.297 o
7 -7 0 117.530 95.106 6.054 84.077 o
7 -7 1 29.025 18.221 6.396 240.414 o
7 -7 2 80.666 75.848 6.260 116.480 o
7 -7 3 82.515 89.747 6.798 103.613 o
7 -7 4 51.255 40.364 4.998 209.394 o
7 -7 5 21.211 10.788 7.717 205.199 o
7 -7 6 0.309 -0.127 8.333 221.007 o
7 -7 7 8.536 3.599 9.517 159.934 o
7 -7 8 8.328 5.193 10.436 133.925 o
7 -7 9 0.075 0.812 11.424 117.644 o
7 -6 0 2007.300 2006.910 24.559 0.691 o
7 -6 1 1850.880 1874.730 24.246 0.798 o
7 -6 2 1450.310 1579.470 22.681 1.202 o
7 -6 3 648.579 715.802 16.363 5.066 o
7 -6 4 17.624 20.441 7.375 217.906 o
7 -6 5 0.551 0.998 7.570 265.871 o
7 -6 6 35.717 36.843 5.193 249.552 o
7 -6 7 22.368 14.827 10.074 129.319 o
7 -6 8 50.989 44.335 6.602 164.493 o
7 -6 9 33.103 30.232 12.333 84.354 o
7 -5 0 2734.590 2611.760 27.611 0.394 o
7 -5 1 1260.720 1277.240 19.551 1.642 o
7 -5 2 812.757 878.952 16.881 3.487 o
7 -5 3 240.670 246.148 9.947 26.455 o
7 -5 4 87.506 99.146 6.778 96.796 o
7 -5 5 40.294 29.488 4.411 280.648 o
7 -5 6 92.727 94.246 7.903 86.141 o
7 -5 7 62.034 58.038 7.277 129.584 o
7 -5 8 20.893 12.910 11.033 111.786 o
7 -5 9 6.236 2.719 11.737 108.455 o
7 -4 0 301.323 315.346 9.663 19.248 o
7 -4 1 329.616 311.521 10.054 17.564 o
7 -4 2 77.066 74.499 5.702 127.168 o
7 -4 3 1.113 -0.196 6.240 389.231 o
7 -4 4 24.128 18.857 7.218 213.473 o
7 -4 5 22.802 15.297 8.313 176.780 o
7 -4 6 0.224 1.027 8.441 214.748 o
7 -4 7 1.604 4.352 9.360 171.660 o
7 -4 8 21.368 17.478 10.944 111.907 o
7 -4 9 0.776 -3.648 11.668 112.647 o
7 -3 0 2450.610 2482.640 26.476 0.469 o
7 -3 1 1213.320 1326.530 19.806 1.677 o
7 -3 2 228.856 259.137 9.487 27.408 o
7 -3 3 42.223 19.023 6.690 198.208 o
7 -3 4 390.318 436.165 13.585 11.640 o
7 -3 5 165.303 186.398 10.005 40.192 o
7 -3 6 210.427 223.242 11.453 29.099 o
7 -3 7 121.805 133.837 9.732 56.585 o
7 -3 8 56.874 47.328 6.475 156.633 o
7 -3 9 20.663 11.971 12.148 94.369 o
7 -2 0 255.927 266.716 8.998 24.834 o
7 -2 1 301.585 301.966 9.771 19.598 o
7 -2 2 206.279 243.967 9.370 30.924 o
7 -2 3 3.314 1.389 6.553 341.351 o
7 -2 4 645.366 763.120 18.251 4.800 o
7 -2 5 92.716 87.233 7.511 91.259 o
7 -2 6 91.465 84.485 7.942 89.292 o
7 -2 7 42.429 30.623 5.487 227.750 o
7 -2 8 6.234 -1.633 10.954 124.729 o
7 -2 9 11.139 6.220 12.079 100.036 o
7 -1 0 38.787 46.663 4.499 251.685 o
7 -1 1 40.111 29.400 4.069 297.333 o
7 -1 2 21.436 15.659 6.416 263.882 o
7 -1 3 20.520 14.338 7.277 222.742 o
7 -1 4 53.446 48.404 6.064 169.898 o
7 -1 5 24.436 22.085 8.617 161.074 o
7 -1 6 74.209 74.166 7.619 107.259 o
7 -1 7 32.489 20.559 10.455 113.418 o
7 -1 8 0.359 -0.421 10.807 131.484 o
7 -1 9 0.005 -3.140 12.284 101.930 o
7 0 0 113.009 105.043 6.299 82.464 o
7 0 1 5.574 2.250 5.731 422.192 o
7 0 2 518.248 542.206 13.986 7.740 o
7 0 3 1030.420 1220.910 22.016 2.105 o
7 0 4 1148.260 1265.660 23.346 1.809 o
7 0 5 451.648 503.485 15.893 8.968 o
7 0 6 175.349 173.038 10.387 38.831 o
7 0 7 52.416 38.095 6.084 179.880 o
7 0 8 3.082 -0.557 11.512 114.669 o
7 1 0 465.471 530.870 12.969 8.879 o
7 1 1 131.518 147.227 7.414 60.332 o
7 1 2 1173.490 1286.550 21.860 1.760 o
7 1 3 605.590 682.205 17.155 5.547 o
7 1 4 81.719 75.496 7.159 106.045 o
7 1 5 21.513 16.529 9.116 152.978 o
7 1 6 15.214 13.448 9.575 147.670 o
7 1 7 11.106 7.864 10.504 129.625 o
7 1 8 20.350 16.265 12.050 95.062 o
7 2 0 135.089 142.092 7.179 60.806 o
7 2 1 40.425 25.478 4.616 278.464 o
7 2 2 69.848 56.043 6.123 140.296 o
7 2 3 365.338 364.424 12.910 13.783 o
7 2 4 186.141 200.013 10.191 35.424 o
7 2 5 48.026 32.648 5.350 215.789 o
7 2 6 1.259 -2.377 9.839 157.816 o
7 2 7 4.741 0.743 10.915 126.231 o
7 2 8 2.566 -2.152 12.157 103.134 o
7 3 0 605.291 614.338 14.974 6.046 o
7 3 1 1758.470 1872.090 26.476 0.845 o
7 3 2 1649.740 1757.370 26.730 0.950 o
7 3 3 711.151 789.890 19.189 4.208 o
7 3 4 270.593 293.897 12.500 20.242 o
7 3 5 26.007 11.717 9.389 143.771 o
7 3 6 30.257 19.326 10.759 109.832 o
7 3 7 8.356 4.245 11.375 113.873 o
7 4 0 936.955 987.839 19.503 2.716 o
7 4 1 760.140 837.247 18.652 3.807 o
7 4 2 272.000 287.305 12.011 20.691 o
7 4 3 52.937 43.328 5.673 184.589 o
7 4 4 29.657 17.057 9.086 145.583 o
7 4 5 61.898 56.894 6.387 145.266 o
7 4 6 51.441 33.987 6.054 186.131 o
7 4 7 29.133 16.060 12.480 86.345 o
7 5 0 74.402 55.260 5.937 138.067 o
7 5 1 209.515 218.645 10.348 30.870 o
7 5 2 358.043 389.277 13.673 13.358 o
7 5 3 46.032 34.868 5.233 221.866 o
7 5 4 3.426 -0.235 9.311 173.800 o
7 5 5 17.029 10.622 10.309 129.262 o
7 5 6 0.137 -6.142 11.502 116.210 o
7 5 7 1.833 -5.927 13.429 84.848 o
7 6 0 1278.480 1392.410 24.569 1.497 o
7 6 1 1207.420 1304.060 24.872 1.663 o
7 6 2 255.328 270.658 12.138 22.331 o
7 6 3 61.924 45.891 5.819 163.657 o
7 6 4 8.307 6.132 9.771 151.291 o
7 6 5 21.231 10.935 11.130 110.381 o
7 6 6 27.557 17.908 12.480 86.561 o
7 7 0 292.433 302.934 12.715 18.547 o
7 7 1 59.374 47.543 5.937 163.934 o
7 7 2 9.801 7.590 8.988 174.254 o
7 7 3 33.173 23.542 10.250 115.720 o
7 7 4 80.930 74.303 7.805 100.366 o
7 7 5 48.836 39.895 6.387 176.672 o
7 7 6 30.664 20.754 13.341 75.751 o
7 8 0 200.958 198.556 10.514 32.970 o
7 8 1 85.048 71.701 6.905 107.580 o
7 8 2 0.044 -2.934 9.468 171.565 o
7 8 3 27.620 14.280 10.641 114.792 o
7 8 4 5.651 5.790 11.238 117.513 o
7 8 5 3.645 2.298 12.187 101.829 o
7 9 0 158.632 165.928 10.015 43.284 o
7 9 1 37.215 28.481 10.172 113.015 o
7 9 2 11.271 6.798 10.446 131.223 o
7 9 3 17.856 16.167 11.297 107.869 o
7 9 4 71.662 61.647 7.912 110.494 o
7 10 0 36.739 28.109 10.328 110.805 o
7 10 1 29.613 28.706 11.052 103.023 o
7 10 2 48.710 36.257 5.712 198.981 o
7 10 3 69.674 68.963 8.079 107.188 o
7 11 0 1.112 -2.083 10.475 139.450 o
7 11 1 0.859 1.408 11.033 125.534 o
7 11 2 3.423 0.763 11.913 106.877 o
7 12 0 23.665 23.552 11.854 95.102 o
7 12 1 14.747 9.565 12.333 94.301 o
7 13 0 14.062 15.043 12.392 92.762 o
8 -19 0 22.330 18.231 12.930 82.817 o
8 -19 1 43.388 36.325 6.220 194.423 o
8 -19 2 59.037 49.206 7.619 131.386 o
8 -18 0 24.256 17.204 12.118 92.475 o
8 -18 1 24.224 16.343 12.167 91.988 o
8 -18 2 41.756 34.261 12.597 78.074 o
8 -18 3 68.730 38.262 6.563 145.257 o
8 -18 4 0.063 2.298 12.245 102.153 o
8 -17 0 42.853 29.811 12.001 84.766 o
8 -17 1 73.019 57.921 7.482 116.447 o
8 -17 2 30.546 23.092 11.717 94.300 o
8 -17 3 21.820 21.830 11.854 96.183 o
8 -17 4 18.332 11.199 12.001 97.516 o
8 -17 5 4.602 4.509 11.893 105.997 o
8 -16 0 369.419 441.818 17.096 11.213 o
8 -16 1 302.467 363.261 15.336 15.283 o
8 -16 2 90.420 101.004 8.382 81.995 o
8 -16 3 49.226 43.142 6.279 176.048 o
8 -16 4 1.574 2.201 11.023 125.153 o
8 -16 5 27.124 20.823 12.108 90.876 o
8 -16 6 10.006 11.717 12.539 92.646 o
8 -15 0 61.057 46.350 6.201 156.952 o
8 -15 1 126.756 95.869 8.206 68.102 o
8 -15 2 7.970 6.367 9.732 152.625 o
8 -15 3 1.832 3.668 9.781 157.610 o
8 -15 4 16.447 11.786 10.700 120.911 o
8 -15 5 32.347 27.630 11.746 92.262 o
8 -15 6 18.771 15.786 11.913 97.750 o
8 -15 7 18.781 11.766 12.881 85.408 o
8 -14 0 279.697 305.047 13.106 18.974 o
8 -14 1 7.841 7.932 9.037 174.551 o
8 -14 2 33.833 20.119 9.605 128.877 o
8 -14 3 10.032 7.179 9.595 154.505 o
8 -14 4 0.392 3.130 9.712 161.321 o
8 -14 5 9.659 3.472 10.739 126.556 o
8 -14 6 17.369 8.891 11.521 105.974 o
8 -14 7 7.197 5.096 12.157 100.485 o
8 -13 0 296.522 337.997 13.302 17.102 o
8 -13 1 54.161 58.204 6.093 160.534 o
8 -13 2 59.560 44.238 5.458 176.660 o
8 -13 3 151.985 171.669 10.270 43.384 o
8 -13 4 121.613 130.815 9.389 58.489 o
8 -13 5 152.207 187.171 11.179 39.771 o
8 -13 6 85.581 90.079 8.529 86.165 o
8 -13 7 54.780 47.152 7.463 139.750 o
8 -13 8 10.458 7.326 12.685 91.176 o
8 -12 0 56.220 40.501 5.291 190.494 o
8 -12 1 42.858 28.579 4.646 262.683 o
8 -12 2 34.437 25.645 8.851 142.575 o
8 -12 3 92.881 87.898 7.609 90.168 o
8 -12 4 34.131 29.342 9.878 119.935 o
8 -12 5 36.443 29.977 10.495 107.749 o
8 -12 6 12.440 9.595 10.524 127.781 o
8 -12 7 15.719 8.235 11.394 109.074 o
8 -12 8 0.116 -4.587 12.079 105.384 o
8 -11 0 67.291 69.217 6.054 136.502 o
8 -11 1 86.101 91.497 7.091 97.716 o
8 -11 2 0.965 1.506 7.834 247.002 o
8 -11 3 26.593 18.593 8.803 155.354 o
8 -11 4 38.695 31.474 5.360 241.795 o
8 -11 5 64.270 55.329 6.524 140.956 o
8 -11 6 12.168 8.118 10.250 134.825 o
8 -11 7 9.364 6.377 11.091 118.421 o
8 -11 8 11.431 2.787 12.030 101.358 o
8 -10 0 129.335 150.631 8.255 57.514 o
8 -10 1 166.354 181.821 9.272 41.968 o
8 -10 2 359.790 397.708 13.673 13.155 o
8 -10 3 565.696 664.933 17.889 5.973 o
8 -10 4 457.472 523.056 16.255 8.622 o
8 -10 5 257.594 305.604 13.233 20.188 o
8 -10 6 58.556 53.617 6.661 146.592 o
8 -10 7 10.802 5.409 10.866 122.561 o
8 -10 8 8.610 8.137 11.786 105.464 o
8 -9 0 176.447 154.651 8.206 44.962 o
8 -9 1 317.343 277.338 10.847 18.855 o
8 -9 2 268.829 269.543 11.003 22.225 o
8 -9 3 91.629 77.188 6.680 102.569 o
8 -9 4 39.419 31.748 5.203 245.638 o
8 -9 5 4.613 -1.252 8.871 189.572 o
8 -9 6 4.431 0.792 9.546 164.189 o
8 -9 7 16.270 6.406 10.485 127.227 o
8 -9 8 0.050 -1.242 11.473 116.845 o
8 -8 0 20.040 18.505 7.042 230.502 o
8 -8 1 116.598 113.856 7.267 73.305 o
8 -8 2 360.590 374.186 12.715 13.840 o
8 -8 3 385.346 402.637 13.595 12.277 o
8 -8 4 140.838 157.565 9.272 50.081 o
8 -8 5 34.061 30.007 4.724 289.235 o
8 -8 6 18.613 14.514 9.634 142.751 o
8 -8 7 43.906 28.765 11.160 94.720 o
8 -8 8 17.872 11.473 11.795 100.767 o
8 -8 9 9.200 -1.966 12.979 88.697 o
8 -7 0 1426.370 1451.150 22.799 1.292 o
8 -7 1 1077.640 1002.720 19.307 2.289 o
8 -7 2 1220.460 1288.740 22.603 1.674 o
8 -7 3 635.931 734.052 18.035 5.000 o
8 -7 4 84.384 90.744 7.140 98.724 o
8 -7 5 23.938 24.471 8.851 153.714 o
8 -7 6 36.847 28.823 5.360 251.251 o
8 -7 7 56.345 53.285 6.925 144.575 o
8 -7 8 86.356 83.947 8.969 83.729 o
8 -7 9 34.767 22.525 13.135 76.459 o
8 -6 0 75.166 57.324 5.418 143.386 o
8 -6 1 106.806 113.670 7.365 77.399 o
8 -6 2 36.230 34.300 4.783 270.025 o
8 -6 3 9.677 7.140 7.130 264.665 o
8 -6 4 28.336 22.417 8.118 171.023 o
8 -6 5 0.254 1.056 8.265 223.867 o
8 -6 6 11.394 8.734 9.380 159.026 o
8 -6 7 23.772 12.392 10.749 115.550 o
8 -6 8 15.691 -3.296 12.138 98.583 o
8 -6 9 2.491 -1.487 12.549 96.881 o
8 -5 0 839.511 847.976 16.920 3.432 o
8 -5 1 632.638 678.117 15.737 5.405 o
8 -5 2 203.590 215.016 9.507 32.956 o
8 -5 3 230.235 256.056 10.592 26.381 o
8 -5 4 0.367 -6.602 7.912 244.945 o
8 -5 5 250.412 268.497 12.216 22.710 o
8 -5 6 103.075 111.870 8.636 72.094 o
8 -5 7 51.450 28.921 5.409 210.203 o
8 -5 8 47.100 32.726 12.451 78.095 o
8 -4 0 1585.240 1661.250 23.346 1.044 o
8 -4 1 1307.920 1380.900 21.850 1.484 o
8 -4 2 599.863 679.467 16.118 5.686 o
8 -4 3 47.218 55.681 5.458 189.139 o
8 -4 4 176.247 199.964 9.888 37.461 o
8 -4 5 247.188 259.225 12.138 23.375 o
8 -4 6 230.452 247.204 12.500 24.879 o
8 -4 7 122.252 124.859 9.781 57.536 o
8 -4 8 38.388 26.075 12.519 81.237 o
8 -3 0 38.763 36.794 4.812 255.772 o
8 -3 1 71.561 83.595 6.279 121.222 o
8 -3 2 38.762 26.633 4.480 289.274 o
8 -3 3 7.558 1.995 7.091 280.210 o
8 -3 4 25.656 11.473 8.362 173.912 o
8 -3 5 21.905 13.507 9.233 150.838 o
8 -3 6 41.562 22.114 10.299 110.200 o
8 -3 7 17.005 8.783 10.690 121.668 o
8 -3 8 2.458 3.560 11.492 114.524 o
8 -2 0 455.879 417.787 12.196 10.435 o
8 -2 1 270.861 271.079 10.309 22.496 o
8 -2 2 177.351 188.883 9.076 39.693 o
8 -2 3 142.170 148.313 8.607 52.977 o
8 -2 4 410.901 466.103 15.336 10.328 o
8 -2 5 87.189 77.433 7.257 100.332 o
8 -2 6 52.807 36.394 5.643 192.355 o
8 -2 7 42.933 37.978 6.240 193.106 o
8 -2 8 3.250 1.633 11.756 109.590 o
8 -1 0 744.371 799.230 16.686 4.076 o
8 -1 1 432.355 451.765 13.018 10.448 o
8 -1 2 63.359 70.019 6.132 139.536 o
8 -1 3 585.999 636.090 16.656 6.011 o
8 -1 4 490.592 540.612 16.549 7.876 o
8 -1 5 318.055 347.455 14.358 15.412 o
8 -1 6 128.255 117.396 9.243 59.124 o
8 -1 7 51.521 35.826 5.995 185.863 o
8 -1 8 4.627 4.079 11.962 104.892 o
8 0 0 77.782 70.645 5.849 126.692 o
8 0 1 2.002 5.506 6.621 331.743 o
8 0 2 7.062 3.795 7.375 259.730 o
8 0 3 131.395 106.716 8.098 64.803 o
8 0 4 54.485 33.479 5.663 191.384 o
8 0 5 9.687 4.167 9.125 171.481 o
8 0 6 7.816 4.548 10.211 140.171 o
8 0 7 0.991 1.536 11.169 122.394 o
8 0 8 0.234 -3.237 12.460 98.995 o
8 1 0 192.374 169.889 8.431 39.868 o
8 1 1 368.220 360.366 12.089 14.009 o
8 1 2 603.269 677.227 17.527 5.566 o
8 1 3 287.504 314.465 12.402 18.677 o
8 1 4 147.398 137.701 8.988 51.800 o
8 1 5 80.584 72.249 7.199 107.767 o
8 1 6 13.111 12.460 10.632 124.129 o
8 1 7 3.134 1.086 11.639 111.947 o
8 2 0 340.693 365.833 12.236 14.937 o
8 2 1 596.044 649.039 16.578 5.844 o
8 2 2 808.831 919.737 20.089 3.322 o
8 2 3 320.486 361.520 13.272 15.478 o
8 2 4 191.869 186.662 10.534 34.989 o
8 2 5 37.899 34.653 5.409 237.567 o
8 2 6 21.853 19.219 11.257 105.869 o
8 2 7 1.424 -2.230 12.089 104.723 o
8 3 0 177.648 150.034 8.421 44.732 o
8 3 1 23.476 15.180 8.040 185.464 o
8 3 2 8.921 7.893 8.225 205.862 o
8 3 3 16.924 8.216 8.705 175.404 o
8 3 4 2.672 2.220 9.272 174.859 o
8 3 5 3.046 1.809 10.260 143.285 o
8 3 6 0.395 -0.450 11.199 122.453 o
8 3 7 0.209 1.770 12.392 99.798 o
8 4 0 809.475 898.346 20.226 3.362 o
8 4 1 186.251 185.684 10.054 36.716 o
8 4 2 170.832 162.984 9.556 42.292 o
8 4 3 67.956 63.593 6.465 132.886 o
8 4 4 46.493 40.081 5.722 199.333 o
8 4 5 14.344 10.514 10.925 117.958 o
8 4 6 22.846 13.624 12.011 95.166 o
8 5 0 521.866 574.991 16.627 7.156 o
8 5 1 420.132 470.720 15.610 10.008 o
8 5 2 217.046 230.646 11.375 28.113 o
8 5 3 154.938 143.109 9.741 47.120 o
8 5 4 31.200 20.236 11.072 104.030 o
8 5 5 16.875 9.223 11.629 104.329 o
8 5 6 5.746 3.140 12.304 99.040 o
8 6 0 25.375 20.813 9.125 146.879 o
8 6 1 22.525 12.597 9.174 152.291 o
8 6 2 1.603 2.064 9.438 170.031 o
8 6 3 1.468 -2.259 10.299 143.978 o
8 6 4 2.992 1.858 10.905 127.125 o
8 6 5 7.427 -1.604 11.971 104.427 o
8 7 0 156.905 161.605 9.781 44.640 o
8 7 1 175.790 168.021 10.319 39.316 o
8 7 2 103.397 106.432 8.744 72.452 o
8 7 3 36.792 22.378 11.297 97.553 o
8 7 4 34.858 20.754 12.314 85.599 o
8 8 0 194.119 187.973 10.896 33.987 o
8 8 1 124.174 124.663 9.292 59.055 o
8 8 2 32.692 25.234 11.424 96.971 o
8 8 3 10.188 3.824 11.698 107.228 o
8 8 4 16.825 10.563 12.441 91.910 o
8 9 0 3.170 2.680 10.279 142.352 o
8 9 1 0.203 2.318 10.573 136.735 o
8 9 2 10.251 5.927 11.267 114.610 o
8 9 3 0.081 -0.284 11.932 108.005 o
8 10 0 85.597 86.724 8.578 86.643 o
8 10 1 74.503 60.620 7.893 108.951 o
8 10 2 32.260 19.600 12.558 83.819 o
8 11 0 52.856 38.037 6.612 166.182 o
8 11 1 15.210 11.023 12.353 93.607 o
8 12 0 8.213 5.428 12.636 92.870 o
9 -18 0 25.794 21.977 12.891 81.685 o
9 -18 1 45.714 35.738 13.223 70.918 o
9 -18 2 37.766 30.711 13.302 72.961 o
9 -18 3 21.952 13.292 12.989 82.969 o
9 -17 0 125.092 115.900 9.976 57.178 o
9 -17 1 144.532 160.607 11.541 42.466 o
9 -17 2 104.143 95.351 9.311 70.959 o
9 -17 3 18.560 11.023 12.421 91.507 o
9 -17 4 2.351 5.057 12.138 102.606 o
9 -16 0 0.291 -3.296 11.150 123.581 o
9 -16 1 3.135 -1.203 10.915 127.344 o
9 -16 2 0.093 -2.445 11.218 122.179 o
9 -16 3 46.169 22.134 12.118 83.648 o
9 -16 4 24.564 13.086 12.118 93.124 o
9 -16 5 1.007 2.377 11.962 106.648 o
9 -15 0 164.520 169.233 10.661 40.389 o
9 -15 1 88.370 84.162 8.089 89.944 o
9 -15 2 64.283 62.605 7.423 122.965 o
9 -15 3 57.832 42.790 6.220 163.936 o
9 -15 4 16.505 15.884 11.649 102.728 o
9 -15 5 6.594 6.387 11.698 108.220 o
9 -15 6 19.478 17.605 12.803 85.268 o
9 -14 0 273.021 295.109 13.282 19.538 o
9 -14 1 49.934 39.416 6.172 180.809 o
9 -14 2 0.907 -0.528 9.829 158.429 o
9 -14 3 1.671 4.607 10.025 149.917 o
9 -14 4 5.375 1.438 10.720 130.180 o
9 -14 5 20.069 15.835 11.561 102.585 o
9 -14 6 29.226 20.559 12.597 84.189 o
9 -13 0 0.222 3.805 8.783 196.564 o
9 -13 1 100.441 87.223 7.766 84.865 o
9 -13 2 126.206 116.946 8.685 62.246 o
9 -13 3 27.157 18.192 10.250 121.272 o
9 -13 4 1.670 -0.655 10.367 141.957 o
9 -13 5 0.013 -3.130 11.140 123.942 o
9 -13 6 0.432 -0.831 11.922 108.043 o
9 -13 7 0.039 3.560 12.216 102.423 o
9 -12 0 161.344 189.000 10.064 40.534 o
9 -12 1 447.039 507.632 16.363 8.938 o
9 -12 2 191.985 191.699 10.495 34.682 o
9 -12 3 95.382 98.539 8.284 80.844 o
9 -12 4 57.153 42.477 6.348 162.427 o
9 -12 5 95.280 96.740 8.675 78.584 o
9 -12 6 36.888 33.948 12.265 83.200 o
9 -12 7 33.141 34.956 13.165 74.916 o
9 -11 0 13.113 15.444 8.734 174.625 o
9 -11 1 3.268 -1.271 8.626 202.025 o
9 -11 2 0.495 -0.763 8.626 205.992 o
9 -11 3 6.750 7.502 8.979 178.193 o
9 -11 4 101.283 112.663 8.685 72.386 o
9 -11 5 123.712 113.200 9.252 61.164 o
9 -11 6 50.875 38.301 6.573 169.963 o
9 -11 7 12.629 5.634 12.245 97.041 o
9 -10 0 556.940 616.304 16.656 6.446 o
9 -10 1 452.636 473.498 14.954 9.404 o
9 -10 2 7.599 9.663 8.225 206.559 o
9 -10 3 0.945 -0.293 8.939 191.304 o
9 -10 4 4.122 1.624 9.311 172.219 o
9 -10 5 2.722 0.597 9.937 153.305 o
9 -10 6 3.911 -3.169 10.915 126.907 o
9 -10 7 32.010 21.801 12.196 87.818 o
9 -9 0 880.231 916.558 19.845 3.039 o
9 -9 1 233.599 242.999 10.720 26.560 o
9 -9 2 180.240 183.836 9.732 38.409 o
9 -9 3 301.881 349.167 13.302 16.576 o
9 -9 4 265.474 296.489 13.018 20.131 o
9 -9 5 161.702 188.521 11.326 37.825 o
9 -9 6 60.921 75.995 7.531 118.439 o
9 -9 7 33.943 29.606 12.196 85.751 o
9 -9 8 9.659 9.741 12.509 93.502 o
9 -8 0 40.787 35.425 4.783 252.587 o
9 -8 1 36.823 27.200 4.137 313.998 o
9 -8 2 236.985 253.875 11.081 25.396 o
9 -8 3 516.642 574.052 16.832 7.212 o
9 -8 4 156.182 162.015 9.869 44.522 o
9 -8 5 49.028 39.631 5.780 192.908 o
9 -8 6 1.059 -4.607 10.671 134.442 o
9 -8 7 1.564 -1.262 11.267 120.391 o
9 -8 8 15.475 7.042 12.646 90.159 o
9 -7 0 278.118 283.363 10.944 21.106 o
9 -7 1 89.370 71.467 6.318 110.106 o
9 -7 2 2.775 1.105 7.511 264.398 o
9 -7 3 21.536 15.131 8.402 175.586 o
9 -7 4 22.434 14.583 9.076 154.121 o
9 -7 5 71.811 73.188 7.247 113.961 o
9 -7 6 47.641 44.384 6.573 170.264 o
9 -7 7 0.153 -0.333 11.081 125.184 o
9 -7 8 1.976 0.646 12.108 104.061 o
9 -6 0 523.474 505.265 14.221 7.925 o
9 -6 1 509.556 538.460 15.101 7.779 o
9 -6 2 429.675 474.202 14.456 9.980 o
9 -6 3 537.673 663.280 17.938 6.281 o
9 -6 4 121.331 147.657 9.184 56.906 o
9 -6 5 136.974 151.051 9.800 50.155 o
9 -6 6 57.742 50.047 6.553 152.013 o
9 -6 7 17.169 12.421 11.473 106.086 o
9 -6 8 21.911 11.629 12.940 83.797 o
9 -5 0 153.546 159.482 8.333 49.389 o
9 -5 1 726.339 793.616 17.928 4.156 o
9 -5 2 931.293 1000.440 21.097 2.684 o
9 -5 3 83.594 71.604 6.592 112.134 o
9 -5 4 63.481 41.616 5.575 169.622 o
9 -5 5 5.612 -0.949 9.595 161.835 o
9 -5 6 24.288 12.187 10.455 120.958 o
9 -5 7 44.628 28.217 12.216 82.066 o
9 -5 8 9.237 4.929 12.539 94.017 o
9 -4 0 0.111 2.631 6.670 340.012 o
9 -4 1 13.732 6.983 7.199 250.369 o
9 -4 2 41.441 35.034 5.448 226.006 o
9 -4 3 206.433 227.653 10.964 29.916 o
9 -4 4 152.419 143.960 9.380 48.625 o
9 -4 5 37.693 32.354 5.272 247.089 o
9 -4 6 0.228 -10.690 10.729 133.484 o
9 -4 7 0.877 -1.428 11.394 118.062 o
9 -4 8 3.855 0.734 12.627 95.145 o
9 -3 0 774.183 832.161 18.006 3.767 o
9 -3 1 921.164 1006.810 20.422 2.720 o
9 -3 2 904.284 1029.520 21.292 2.720 o
9 -3 3 182.651 209.275 10.348 35.000 o
9 -3 4 278.595 319.815 13.380 18.458 o
9 -3 5 51.974 40.560 5.653 189.610 o
9 -3 6 25.251 12.764 10.993 110.242 o
9 -3 7 53.772 44.668 6.768 156.568 o
9 -2 0 1129.950 1153.440 21.439 1.971 o
9 -2 1 368.759 369.677 12.842 13.586 o
9 -2 2 24.004 13.859 8.089 183.907 o
9 -2 3 0.390 2.670 8.255 222.782 o
9 -2 4 23.454 12.363 9.223 150.170 o
9 -2 5 65.485 58.605 6.494 138.067 o
9 -2 6 45.177 38.633 6.406 183.520 o
9 -2 7 30.983 22.085 12.549 83.943 o
9 -1 0 36.690 32.452 4.998 261.963 o
9 -1 1 348.766 370.625 12.920 14.282 o
9 -1 2 353.758 377.012 13.243 13.867 o
9 -1 3 71.542 67.603 6.612 124.933 o
9 -1 4 0.517 -0.293 9.135 183.737 o
9 -1 5 1.108 -0.597 10.035 151.881 o
9 -1 6 1.100 -0.822 11.013 126.229 o
9 -1 7 21.842 12.920 12.734 86.096 o
9 0 0 1010.090 1073.270 20.764 2.353 o
9 0 1 442.726 490.516 14.739 9.470 o
9 0 2 244.641 270.824 11.727 23.470 o
9 0 3 141.632 154.025 9.458 49.753 o
9 0 4 104.167 107.097 8.353 74.324 o
9 0 5 130.003 114.814 9.477 58.006 o
9 0 6 131.025 148.606 11.081 47.612 o
9 0 7 49.515 46.340 7.697 141.408 o
9 1 0 55.885 45.626 5.389 183.737 o
9 1 1 13.056 4.812 7.736 224.794 o
9 1 2 85.105 79.056 6.934 104.381 o
9 1 3 105.277 104.818 7.942 76.822 o
9 1 4 148.621 151.863 10.015 46.768 o
9 1 5 43.311 34.741 11.619 88.027 o
9 1 6 19.464 18.701 12.187 93.030 o
9 2 0 358.965 390.744 13.536 13.344 o
9 2 1 131.172 137.036 8.558 57.931 o
9 2 2 4.628 1.203 8.568 201.896 o
9 2 3 4.526 3.081 9.223 174.198 o
9 2 4 22.792 11.297 10.583 119.629 o
9 2 5 24.718 14.690 11.580 100.496 o
9 2 6 40.317 30.378 13.370 71.723 o
9 3 0 267.483 288.860 12.040 20.919 o
9 3 1 165.209 178.339 9.653 41.690 o
9 3 2 125.281 117.846 8.597 62.794 o
9 3 3 162.331 156.695 10.045 43.390 o
9 3 4 220.362 257.816 13.302 24.453 o
9 3 5 94.358 84.465 8.979 79.685 o
9 3 6 36.575 21.918 13.712 70.635 o
9 4 0 2.281 -0.870 8.509 208.989 o
9 4 1 186.450 185.587 10.348 36.176 o
9 4 2 162.785 160.010 10.025 43.029 o
9 4 3 145.299 127.529 9.644 51.505 o
9 4 4 40.306 33.362 11.971 85.379 o
9 4 5 3.609 6.054 11.903 105.916 o
9 5 0 1.490 1.086 8.754 197.988 o
9 5 1 13.749 8.881 9.370 156.976 o
9 5 2 6.155 3.071 10.133 144.023 o
9 5 3 62.309 62.038 7.824 119.159 o
9 5 4 58.462 40.296 6.602 156.666 o
9 5 5 50.583 37.147 13.703 65.639 o
9 6 0 73.086 62.948 7.003 120.476 o
9 6 1 223.837 219.750 11.795 27.488 o
9 6 2 342.773 389.942 16.128 13.027 o
9 6 3 143.878 130.502 10.964 47.191 o
9 6 4 56.784 36.276 13.644 64.745 o
9 7 0 187.027 208.659 11.561 32.494 o
9 7 1 137.424 125.084 9.908 52.890 o
9 7 2 31.591 18.544 12.069 90.150 o
9 7 3 0.152 -7.257 12.539 97.790 o
9 8 0 19.116 10.915 10.905 115.611 o
9 8 1 67.699 57.187 7.521 120.906 o
9 8 2 100.936 85.561 9.340 74.023 o
9 9 0 164.631 177.547 11.883 37.031 o
9 9 1 134.816 137.270 11.424 46.882 o
9 9 2 23.246 13.223 12.940 83.171 o
9 10 0 26.338 11.942 12.490 87.838 o
10 -17 0 10.072 10.710 12.040 100.201 o
10 -17 1 6.686 7.560 12.089 101.314 o
10 -17 2 10.577 5.594 12.500 94.026 o
10 -17 3 76.501 42.536 7.081 125.876 o
10 -16 0 76.471 65.217 7.688 108.152 o
10 -16 1 106.452 112.966 9.751 64.440 o
10 -16 2 105.653 101.845 9.986 65.310 o
10 -16 3 114.543 101.630 9.321 65.870 o
10 -16 4 49.812 46.702 7.326 148.479 o
10 -15 0 35.423 20.295 11.228 99.636 o
10 -15 1 57.097 39.298 6.739 156.322 o
10 -15 2 1.148 -2.719 11.375 118.337 o
10 -15 3 1.507 2.162 11.453 116.063 o
10 -15 4 0.693 -5.477 12.196 103.158 o
10 -15 5 0.730 1.076 12.333 100.687 o
10 -14 0 34.329 26.770 10.915 103.227 o
10 -14 1 155.819 154.162 10.573 43.552 o
10 -14 2 257.156 246.637 13.214 22.183 o
10 -14 3 157.371 182.124 12.030 37.446 o
10 -14 4 26.956 28.501 12.108 89.527 o
10 -14 5 5.165 1.888 11.913 105.957 o
10 -13 0 273.591 306.396 13.996 18.721 o
10 -13 1 414.130 471.072 16.911 9.864 o
10 -13 2 215.063 204.473 11.737 29.244 o
10 -13 3 124.543 131.901 9.790 55.855 o
10 -13 4 19.754 8.793 11.443 106.225 o
10 -13 5 40.470 33.968 12.460 79.918 o
10 -13 6 16.309 8.098 12.597 90.374 o
10 -12 0 30.635 15.365 9.849 127.976 o
10 -12 1 0.866 0.939 9.595 165.832 o
10 -12 2 0.064 0.675 9.751 161.416 o
10 -12 3 0.114 -0.205 10.025 152.963 o
10 -12 4 0.423 -0.861 10.495 139.387 o
10 -12 5 10.199 9.233 11.238 114.378 o
10 -12 6 5.514 -1.741 12.460 97.233 o
10 -11 0 535.645 568.037 17.497 6.924 o
10 -11 1 527.945 520.767 17.263 7.376 o
10 -11 2 118.899 113.220 8.930 64.271 o
10 -11 3 14.818 11.795 9.986 138.019 o
10 -11 4 4.954 7.022 10.485 134.349 o
10 -11 5 7.567 3.726 11.316 115.518 o
10 -11 6 9.977 6.044 12.089 100.355 o
10 -10 0 578.411 588.791 17.292 6.300 o
10 -10 1 207.855 196.472 10.250 32.590 o
10 -10 2 29.424 25.860 9.634 129.452 o
10 -10 3 66.853 69.931 7.081 121.984 o
10 -10 4 98.825 115.753 8.998 70.910 o
10 -10 5 89.032 80.289 8.441 87.677 o
10 -10 6 61.066 49.118 7.736 127.489 o
10 -10 7 18.334 12.861 12.920 84.902 o
10 -9 0 0.765 1.536 8.402 215.473 o
10 -9 1 7.519 3.286 8.265 209.977 o
10 -9 2 4.942 -1.712 8.998 184.015 o
10 -9 3 80.610 68.885 6.983 111.488 o
10 -9 4 12.758 4.362 10.182 137.424 o
10 -9 5 2.365 2.103 10.534 136.413 o
10 -9 6 1.414 -1.037 11.610 113.504 o
10 -9 7 6.595 3.462 12.529 95.270 o
10 -8 0 185.447 188.129 9.732 37.218 o
10 -8 1 15.043 15.091 8.411 183.921 o
10 -8 2 18.432 17.986 8.871 162.548 o
10 -8 3 112.865 139.461 9.155 60.868 o
10 -8 4 89.847 91.752 8.646 82.610 o
10 -8 5 99.929 96.662 8.832 75.453 o
10 -8 6 67.989 58.742 7.639 118.309 o
10 -8 7 6.968 7.463 12.157 100.132 o
10 -7 0 145.596 153.262 8.499 51.736 o
10 -7 1 145.696 163.081 9.145 48.630 o
10 -7 2 291.079 335.474 13.448 17.358 o
10 -7 3 317.508 383.330 14.553 14.631 o
10 -7 4 93.025 79.360 7.952 89.792 o
10 -7 5 37.468 26.779 11.375 95.198 o
10 -7 6 13.019 4.861 11.619 107.136 o
10 -7 7 0.974 0.313 12.089 104.834 o
10 -6 0 4.798 3.922 7.580 251.863 o
10 -6 1 16.840 5.771 8.265 193.659 o
10 -6 2 75.986 64.571 6.582 122.425 o
10 -6 3 33.560 28.266 9.781 122.551 o
10 -6 4 2.293 5.614 9.507 165.242 o
10 -6 5 16.750 9.145 10.905 117.396 o
10 -6 6 0.114 -1.027 11.297 120.483 o
10 -6 7 9.398 4.088 12.372 96.549 o
10 -5 0 140.912 159.375 8.998 50.665 o
10 -5 1 179.912 219.701 10.465 34.460 o
10 -5 2 368.729 461.467 15.385 11.436 o
10 -5 3 301.723 339.817 13.928 16.498 o
10 -5 4 140.477 142.894 9.888 50.009 o
10 -5 5 40.608 25.821 11.336 94.547 o
10 -5 6 3.509 3.785 11.160 120.727 o
10 -5 7 0.528 2.377 12.157 103.446 o
10 -4 0 572.262 631.327 17.008 6.156 o
10 -4 1 546.884 630.270 17.439 6.410 o
10 -4 2 448.569 489.274 15.923 9.160 o
10 -4 3 31.412 25.811 9.536 129.972 o
10 -4 4 38.026 24.314 10.367 110.522 o
10 -4 5 7.328 5.790 10.367 136.085 o
10 -4 6 4.269 1.448 11.473 114.558 o
10 -4 7 18.917 9.673 12.715 87.760 o
10 -3 0 35.393 31.669 5.145 260.985 o
10 -3 1 13.232 12.245 8.108 200.701 o
10 -3 2 147.543 142.875 9.047 50.922 o
10 -3 3 70.895 56.141 6.494 133.319 o
10 -3 4 6.410 3.365 9.644 158.000 o
10 -3 5 2.876 1.135 10.504 137.147 o
10 -3 6 9.442 5.340 11.580 109.304 o
10 -2 0 925.355 1009.760 21.312 2.684 o
10 -2 1 922.016 1038.350 22.221 2.631 o
10 -2 2 376.016 429.250 15.101 11.755 o
10 -2 3 73.139 77.697 7.521 107.842 o
10 -2 4 0.437 1.682 9.644 164.219 o
10 -2 5 2.671 3.306 10.710 131.484 o
10 -2 6 3.412 -0.469 12.099 103.810 o
10 -1 0 493.570 556.173 16.265 7.746 o
10 -1 1 57.368 51.514 5.976 163.155 o
10 -1 2 1.871 2.709 8.675 199.864 o
10 -1 3 1.067 2.083 9.213 178.880 o
10 -1 4 18.128 11.463 10.348 127.384 o
10 -1 5 36.627 35.200 12.206 83.724 o
10 -1 6 61.331 50.106 8.020 122.266 o
10 0 0 292.330 286.375 12.118 19.377 o
10 0 1 235.065 245.453 11.678 25.372 o
10 0 2 8.381 3.159 9.027 177.015 o
10 0 3 5.968 5.193 9.507 161.923 o
10 0 4 36.571 19.532 10.954 103.330 o
10 0 5 0.826 -0.333 11.531 115.307 o
10 0 6 0.063 -7.296 13.126 89.269 o
10 1 0 565.835 616.128 17.634 6.257 o
10 1 1 44.210 41.059 5.409 212.964 o
10 1 2 8.139 4.519 9.125 172.987 o
10 1 3 2.221 -2.142 10.182 146.733 o
10 1 4 55.077 45.607 6.445 161.053 o
10 1 5 65.949 65.745 7.824 114.547 o
10 2 0 5.356 5.467 8.597 196.540 o
10 2 1 5.323 3.932 9.067 178.628 o
10 2 2 42.858 26.848 10.250 108.808 o
10 2 3 84.729 73.491 7.893 97.226 o
10 2 4 78.006 54.351 7.375 115.107 o
10 2 5 42.590 38.399 13.693 67.435 o
10 3 0 70.787 67.995 6.778 123.256 o
10 3 1 5.153 -0.988 9.360 170.252 o
10 3 2 5.560 4.871 10.035 146.497 o
10 3 3 0.029 -0.421 10.944 128.403 o
10 3 4 8.117 4.636 12.108 101.011 o
10 4 0 16.683 10.632 9.517 149.221 o
10 4 1 15.529 7.805 10.045 137.535 o
10 4 2 58.881 43.690 6.250 161.056 o
10 4 3 144.888 159.609 11.561 42.438 o
10 4 4 77.374 82.959 8.910 89.150 o
10 5 0 31.697 16.969 10.338 117.098 o
10 5 1 84.647 69.452 7.560 101.966 o
10 5 2 126.888 128.018 10.270 53.866 o
10 5 3 50.114 39.259 13.145 69.962 o
10 6 0 4.485 -0.812 10.788 129.525 o
10 6 1 0.239 -0.753 11.277 120.839 o
10 6 2 26.322 20.754 12.607 84.974 o
10 6 3 24.732 23.532 13.174 78.678 o
10 7 0 103.194 88.045 8.617 77.343 o
10 7 1 185.612 193.969 12.734 31.637 o
10 7 2 168.752 203.270 13.214 32.226 o
10 8 0 65.858 39.768 13.311 64.604 o
10 8 1 58.322 59.759 8.480 113.905 o
10 9 0 29.236 22.231 13.390 75.445 o
11 -16 0 11.902 10.749 12.069 99.037 o
11 -16 1 1.938 1.252 12.206 102.317 o
11 -16 2 9.410 1.888 12.793 90.865 o
11 -15 0 78.657 83.536 8.636 90.811 o
11 -15 1 76.909 62.625 7.619 109.622 o
11 -15 2 85.638 67.711 8.069 96.785 o
11 -15 3 51.505 48.727 7.443 142.913 o
11 -14 0 50.810 42.242 6.162 177.084 o
11 -14 1 44.288 34.565 12.079 82.548 o
11 -14 2 16.349 9.027 11.570 105.578 o
11 -14 3 9.332 -1.477 12.803 91.041 o
11 -14 4 0.130 -7.326 12.451 99.185 o
11 -13 0 45.923 33.254 11.463 89.113 o
11 -13 1 68.957 68.151 7.795 111.543 o
11 -13 2 22.695 15.972 11.453 103.082 o
11 -13 3 4.062 -0.910 11.649 111.594 o
11 -13 4 5.005 4.783 11.903 105.611 o
11 -12 0 251.228 286.199 13.341 21.136 o
11 -12 1 168.084 176.471 10.984 38.492 o
11 -12 2 59.398 44.639 6.074 163.273 o
11 -12 3 15.709 13.321 11.336 108.903 o
11 -12 4 24.983 19.620 12.059 92.543 o
11 -12 5 31.162 27.112 12.803 80.278 o
11 -11 0 45.536 24.843 10.495 104.118 o
11 -11 1 3.250 3.218 9.732 158.114 o
11 -11 2 0.224 -0.734 10.182 148.218 o
11 -11 3 0.033 1.389 10.553 137.648 o
11 -11 4 4.199 4.020 11.238 118.685 o
11 -11 5 5.325 5.066 12.128 101.659 o
11 -10 0 135.500 130.150 8.979 56.110 o
11 -10 1 55.743 45.489 5.712 176.566 o
11 -10 2 21.379 18.691 10.279 124.306 o
11 -10 3 11.256 3.961 10.563 129.422 o
11 -10 4 23.610 21.439 11.521 100.393 o
11 -10 5 24.943 24.324 12.304 88.533 o
11 -9 0 87.442 90.118 7.590 92.966 o
11 -9 1 39.220 41.157 5.321 228.393 o
11 -9 2 24.373 18.603 10.143 125.155 o
11 -9 3 205.227 241.326 12.852 26.981 o
11 -9 4 120.922 128.644 10.289 55.270 o
11 -9 5 110.481 123.050 10.064 60.002 o
11 -9 6 54.833 41.157 7.326 145.791 o
11 -8 0 4.238 2.113 8.871 188.713 o
11 -8 1 6.216 4.284 9.125 175.247 o
11 -8 2 52.897 40.306 5.800 184.270 o
11 -8 3 75.075 61.598 7.130 117.626 o
11 -8 4 19.372 5.399 11.120 112.914 o
11 -8 5 9.107 5.497 11.610 108.892 o
11 -8 6 0.123 -0.381 12.402 99.970 o
11 -7 0 17.911 17.018 8.900 162.757 o
11 -7 1 112.437 105.102 8.245 71.825 o
11 -7 2 36.522 37.098 6.064 213.202 o
11 -7 3 232.156 258.579 13.214 23.584 o
11 -7 4 74.551 68.053 7.981 105.126 o
11 -7 5 54.363 41.029 6.817 157.185 o
11 -7 6 27.324 25.498 13.116 78.307 o
11 -6 0 198.873 230.939 11.003 30.543 o
11 -6 1 407.185 439.843 15.708 10.648 o
11 -6 2 474.258 521.638 17.497 8.155 o
11 -6 3 287.781 308.401 14.123 17.837 o
11 -6 4 108.136 112.340 9.409 65.777 o
11 -6 5 37.161 34.330 12.402 81.555 o
11 -6 6 6.173 3.951 12.490 95.910 o
11 -5 0 59.047 53.871 6.240 153.725 o
11 -5 1 98.625 74.929 7.208 93.897 o
11 -5 2 81.029 58.322 6.866 117.074 o
11 -5 3 6.317 3.756 10.054 145.797 o
11 -5 4 2.159 -1.927 10.984 126.319 o
11 -5 5 0.663 -0.381 11.345 119.182 o
11 -5 6 2.246 -2.054 12.519 97.412 o
11 -4 0 177.976 171.082 9.869 39.603 o
11 -4 1 197.625 198.272 10.817 32.966 o
11 -4 2 250.790 275.372 13.037 21.770 o
11 -4 3 93.462 81.492 8.108 87.651 o
11 -4 4 52.391 39.915 6.152 176.617 o
11 -4 5 25.349 13.517 12.196 91.701 o
11 -3 0 707.882 739.559 19.796 4.362 o
11 -3 1 647.262 678.626 19.551 5.039 o
11 -3 2 262.267 270.286 12.764 21.372 o
11 -3 3 102.369 114.198 8.949 70.102 o
11 -3 4 25.416 20.813 11.639 98.009 o
11 -3 5 26.416 18.622 12.294 89.138 o
11 -2 0 88.537 69.608 7.306 101.684 o
11 -2 1 12.276 6.621 9.468 156.508 o
11 -2 2 0.215 -0.352 9.663 164.534 o
11 -2 3 0.196 1.056 10.358 142.880 o
11 -2 4 0.013 -1.086 11.267 121.161 o
11 -2 5 0.329 -1.526 12.138 104.290 o
11 -1 0 343.627 396.192 14.730 13.385 o
11 -1 1 190.608 200.473 11.052 33.370 o
11 -1 2 65.856 54.008 6.396 141.974 o
11 -1 3 31.919 19.424 10.964 105.565 o
11 -1 4 23.060 12.480 11.844 97.705 o
11 -1 5 28.427 15.982 13.077 79.747 o
11 0 0 356.737 370.166 14.710 13.388 o
11 0 1 72.217 57.940 6.758 127.105 o
11 0 2 70.635 56.541 6.768 129.313 o
11 0 3 37.882 26.554 11.629 91.748 o
11 0 4 85.340 84.436 9.076 83.230 o
11 1 0 0.036 0.694 9.468 171.228 o
11 1 1 3.302 4.343 9.722 157.880 o
11 1 2 4.092 5.291 10.358 138.720 o
11 1 3 6.716 2.044 11.375 115.184 o
11 1 4 2.081 -2.269 12.832 92.801 o
11 2 0 81.960 76.377 7.247 104.615 o
11 2 1 28.077 20.500 10.817 109.706 o
11 2 2 61.799 51.456 6.514 146.563 o
11 2 3 73.169 56.326 7.668 114.551 o
11 2 4 56.257 38.937 14.055 61.616 o
11 3 0 95.596 90.959 8.001 84.739 o
11 3 1 95.195 80.240 8.020 87.742 o
11 3 2 117.183 105.630 9.448 63.623 o
11 3 3 94.582 83.194 8.939 80.168 o
11 4 0 0.848 2.064 10.514 137.917 o
11 4 1 0.563 2.318 11.072 124.570 o
11 4 2 7.365 5.057 12.255 98.888 o
11 5 0 68.164 48.649 7.159 129.982 o
11 5 1 52.167 33.381 6.054 185.347 o
11 5 2 69.613 56.444 8.235 109.920 o
11 6 0 86.874 75.027 8.362 91.049 o
11 6 1 82.490 63.173 8.216 98.795 o
11 7 0 2.434 -0.391 12.715 94.402 o
12 -15 0 4.801 2.073 12.402 98.028 o
12 -15 1 0.090 -0.440 12.363 100.615 o
12 -14 0 48.018 35.992 12.813 73.893 o
12 -14 1 84.451 72.680 8.274 93.992 o
12 -14 2 66.830 48.893 6.895 135.520 o
12 -13 0 75.156 57.666 7.130 119.322 o
12 -13 1 93.506 83.673 8.558 83.481 o
12 -13 2 45.716 34.447 13.008 72.991 o
12 -13 3 12.569 4.372 12.646 91.513 o
12 -12 0 0.093 0.655 10.974 127.502 o
12 -12 1 0.493 -4.792 11.600 114.102 o
12 -12 2 8.520 7.511 11.570 109.407 o
12 -12 3 6.187 6.612 11.991 103.290 o
12 -11 0 151.981 139.090 10.338 46.485 o
12 -11 1 142.879 151.462 10.279 47.281 o
12 -11 2 74.659 62.234 7.414 114.111 o
12 -11 3 32.054 21.087 12.734 81.668 o
12 -11 4 20.345 14.348 12.813 85.381 o
12 -10 0 126.799 125.231 9.340 57.976 o
12 -10 1 64.258 49.226 6.455 145.918 o
12 -10 2 0.164 -0.284 11.238 121.718 o
12 -10 3 24.715 17.644 11.981 94.085 o
12 -10 4 11.985 6.269 12.255 97.012 o
12 -9 0 15.790 9.996 10.367 128.983 o
12 -9 1 41.436 28.530 11.160 95.901 o
12 -9 2 13.611 12.059 10.729 121.895 o
12 -9 3 0.367 -1.790 11.551 115.125 o
12 -9 4 0.141 1.076 11.815 109.915 o
12 -8 0 140.787 139.628 9.507 51.573 o
12 -8 1 126.507 152.753 10.250 50.958 o
12 -8 2 24.399 18.974 11.336 103.462 o
12 -8 3 72.762 61.852 7.648 112.873 o
12 -8 4 43.347 33.997 12.910 74.617 o
12 -7 0 44.808 32.697 5.350 223.795 o
12 -7 1 11.216 8.714 10.143 137.944 o
12 -7 2 51.451 34.340 5.731 194.732 o
12 -7 3 36.682 27.513 11.619 92.169 o
12 -7 4 48.282 35.367 6.005 192.202 o
12 -6 0 86.756 80.553 7.189 100.182 o
12 -6 1 43.760 35.464 5.467 218.903 o
12 -6 2 4.457 3.188 10.534 134.709 o
12 -6 3 7.527 7.629 11.365 113.647 o
12 -6 4 0.988 -2.973 11.844 109.247 o
12 -5 0 182.863 181.459 10.729 36.332 o
12 -5 1 74.012 66.410 7.081 117.055 o
12 -5 2 116.944 120.526 9.624 60.458 o
12 -5 3 73.510 74.616 8.196 101.161 o
12 -5 4 56.846 59.055 7.658 128.050 o
12 -4 0 7.152 1.183 9.702 156.487 o
12 -4 1 43.219 24.373 10.700 102.464 o
12 -4 2 91.127 74.147 7.952 92.462 o
12 -4 3 72.095 68.415 7.678 110.420 o
12 -4 4 24.986 16.441 12.509 87.297 o
12 -3 0 9.670 7.394 9.839 147.675 o
12 -3 1 8.598 6.602 10.416 133.753 o
12 -3 2 0.375 -7.404 11.081 125.066 o
12 -3 3 17.394 11.336 11.786 101.146 o
12 -3 4 8.839 1.800 12.509 95.092 o
12 -2 0 171.031 181.909 10.690 38.196 o
12 -2 1 220.166 256.779 12.969 24.857 o
12 -2 2 160.935 176.256 11.531 38.451 o
12 -2 3 113.878 106.432 9.517 64.256 o
12 -2 4 45.083 37.381 13.732 66.658 o
12 -1 0 181.188 170.779 10.915 37.034 o
12 -1 1 100.779 89.933 8.558 78.418 o
12 -1 2 61.478 41.255 6.621 151.538 o
12 -1 3 6.948 6.758 12.059 101.842 o
12 0 0 6.766 5.242 10.602 130.929 o
12 0 1 22.741 11.864 11.150 109.046 o
12 0 2 37.429 24.735 12.265 84.595 o
12 0 3 16.715 7.541 12.695 89.040 o
12 1 0 252.179 250.295 13.214 22.407 o
12 1 1 184.075 193.665 11.746 33.510 o
12 1 2 72.594 50.350 7.736 116.611 o
12 2 0 96.528 79.330 8.842 80.895 o
12 2 1 22.710 19.023 11.971 94.728 o
12 2 2 2.677 -2.152 12.441 98.487 o
12 3 0 60.237 43.005 6.377 156.951 o
12 3 1 68.773 50.145 7.267 126.958 o
12 4 0 129.226 114.912 10.045 55.880 o
12 4 1 20.642 16.050 12.754 85.743 o
12 5 0 0.743 -0.870 12.666 95.654 o
13 -13 0 21.888 22.368 12.773 84.151 o
13 -12 0 99.571 97.591 9.223 72.883 o
13 -12 1 138.160 119.587 10.250 52.158 o
13 -11 0 22.719 12.901 11.991 95.632 o
13 -11 1 14.275 4.616 12.490 93.094 o
13 -11 2 10.724 3.384 12.685 91.713 o
13 -10 0 157.921 162.054 11.737 39.581 o
13 -10 1 200.200 213.559 12.793 28.900 o
13 -10 2 97.023 87.800 9.204 76.132 o
13 -9 0 281.089 301.213 14.925 17.878 o
13 -9 1 110.930 83.203 8.763 74.049 o
13 -9 2 5.871 5.096 11.952 104.368 o
13 -9 3 10.939 6.299 12.666 91.455 o
13 -8 0 1.460 -1.858 11.717 111.420 o
13 -8 1 46.565 33.968 5.995 197.300 o
13 -8 2 2.056 1.252 11.639 112.381 o
13 -8 3 0.123 -4.685 12.646 96.143 o
13 -7 0 261.222 293.701 14.338 19.546 o
13 -7 1 89.356 81.326 8.411 87.463 o
13 -7 2 13.014 11.404 11.815 102.475 o
13 -7 3 13.143 11.091 12.500 92.254 o
13 -6 0 50.894 30.515 11.659 85.438 o
13 -6 1 5.141 4.783 11.160 119.629 o
13 -6 2 26.318 12.979 12.167 91.838 o
13 -6 3 65.508 65.197 8.294 108.962 o
13 -5 0 39.944 28.061 11.570 91.335 o
13 -5 1 0.206 -0.411 11.091 124.936 o
13 -5 2 17.894 11.854 11.854 99.773 o
13 -5 3 35.281 24.412 13.409 73.419 o
13 -4 0 12.618 4.841 11.003 118.878 o
13 -4 1 6.972 4.274 11.394 114.149 o
13 -4 2 8.652 7.375 12.177 99.219 o
13 -3 0 11.180 6.827 11.062 117.935 o
13 -3 1 107.750 93.972 9.517 68.626 o
13 -3 2 148.685 158.524 11.385 42.331 o
13 -2 0 46.195 28.667 11.971 84.088 o
13 -2 1 54.206 36.638 12.656 73.398 o
13 -2 2 12.759 9.536 12.343 94.863 o
13 -1 0 36.317 27.601 12.059 86.868 o
13 -1 1 55.562 41.421 6.895 153.628 o
13 -1 2 101.313 85.492 9.536 72.595 o
13 0 0 185.640 199.025 12.382 31.919 o
13 0 1 104.754 107.508 9.722 66.109 o
13 1 0 4.574 3.130 12.294 99.610 o
13 2 0 107.210 86.431 8.988 73.524 o
14 -10 0 65.100 34.936 13.693 62.640 o
14 -9 0 23.891 24.637 13.145 79.069 o
14 -8 0 89.218 72.318 8.382 90.306 o
14 -7 0 0.283 2.259 12.011 106.090 o
14 -7 1 5.759 5.311 12.314 98.501 o
14 -6 0 75.204 85.472 8.773 90.929 o
14 -6 1 39.436 29.909 13.311 72.540 o
14 -5 0 25.856 24.823 12.451 86.331 o
14 -4 0 1.724 0.880 12.079 104.614 o
14 -3 0 39.691 30.418 13.067 74.675 o
14 -2 0 136.739 139.383 11.394 46.375 o
;
_iucr_refine_instructions_details
;
TITL r26
REM r26
REM 384 parameters refined using 6 restraints
CELL 0.71078 10.551 14.251 9.551 99.77 105.1 104.77
ZERR 2 0.002 0.003 0.002 0.02 0.02 0.02
LATT 1
SFAC C H Cl N O P Pd
UNIT 59 48 2 4 2 2 2
DFIX 1.51 C4 C10
SADI C10 C11 C11 C13 C13 C1A C1A C1B C1B C1C C1C C10
SADI 0.04 C10 C1B C10 C13 C1C C1A C11 C1C C13 C1B C11 C1A
SADI 0.04 C4 C1C C4 C11
FLAT C4 C10 C11 C13 C1A C1B C1C
SIMU C4 C10 C11 C13 C1A C1B C1C
SIMU 0.01 0.02 2 C13 C1A C1B
SIMU 0.01 0.02 2 C4 C10
RIGU C4 C10 C11 C13 C1A C1B C1C

L.S. 4
PLAN  -10 0.2 -1.5
CONF
wpdb 
MORE -1
BOND $H
fmap 2
acta 
EXTI 0.022038
WGHT 0.070616 0.78052
FVAR 1.011155
REM <olex2.extras>
REM <HklSrc "%.\\malbac.hkl">
REM </olex2.extras>

Pd    7     0.27736  0.17000  0.00004  11.00000  0.03699  0.04643  0.05995 =
 0.00846  0.02299  0.01396 
P     6     0.18939  0.26029  0.13622  11.00000  0.03509  0.03933  0.04933 =
 0.00955  0.01930  0.01228 
Cl    3     0.49493  0.27123  0.14061  11.00000  0.03761  0.08257  0.10463 =
 -0.01221  0.02436  0.00927 
O     5     0.34749  0.08278 -0.13893  11.00000  0.04372  0.04886  0.06379 =
 0.00447  0.02854  0.01615 
N1    4     0.09628  0.07651 -0.14078  11.00000  0.04658  0.04040  0.04545 =
 0.00978  0.01878  0.01698 
C1    1     0.25721  0.27413  0.33683  11.00000  0.04322  0.04517  0.05264 =
 0.01301  0.01920  0.01701 
C2    1     0.00309  0.20414  0.08802  11.00000  0.03626  0.04512  0.05298 =
 0.01295  0.01939  0.01559 
C3    1     0.21509  0.38610  0.10663  11.00000  0.04538  0.04227  0.04984 =
 0.01194  0.01326  0.01200 
C5    1    -0.06336  0.24463  0.17936  11.00000  0.04133  0.05595  0.06369 =
 0.00774  0.02312  0.01783 
AFIX 43
H5    2    -0.01094  0.29515  0.26595  11.00000 -1.20000 
AFIX 0
C6    1    -0.28523  0.13525  0.01736  11.00000  0.03493  0.06927  0.07320 =
 0.01920  0.02268  0.01933 
AFIX 43
H6    2    -0.38108  0.11335 -0.00786  11.00000 -1.20000 
AFIX 0
C7    1    -0.22049  0.09219 -0.07136  11.00000  0.03238  0.06191  0.06238 =
 0.00798  0.01258  0.01327 
AFIX 43
H7    2    -0.27400  0.03993 -0.15547  11.00000 -1.20000 
AFIX 0
C8    1     0.19520  0.20343  0.40313  11.00000  0.05584  0.05134  0.06139 =
 0.01698  0.02373  0.01858 
AFIX 43
H8    2     0.11388  0.15224  0.34678  11.00000 -1.20000 
AFIX 0
C9    1    -0.07610  0.12480 -0.03865  11.00000  0.03534  0.05180  0.05319 =
 0.01695  0.01820  0.01697 
C12   1    -0.20610  0.21114  0.14382  11.00000  0.04646  0.06566  0.07384 =
 0.01448  0.03047  0.02639 
AFIX 43
H12   2    -0.24847  0.24000  0.20552  11.00000 -1.20000 
AFIX 0
C14   1     0.37975  0.34986  0.42282  11.00000  0.04649  0.06314  0.06089 =
 0.01693  0.01565  0.01110 
AFIX 43
H14   2     0.42202  0.39793  0.38040  11.00000 -1.20000 
AFIX 0
C15   1     0.28936  0.41620  0.01317  11.00000  0.14102  0.06280  0.11567 =
 0.03844  0.09161  0.03555 
AFIX 43
H15   2     0.32502  0.37203 -0.03532  11.00000 -1.20000 
AFIX 0
C16   1     0.43802  0.35284  0.57226  11.00000  0.05694  0.08773  0.06221 =
 0.01162  0.00425  0.01624 
AFIX 43
H16   2     0.52038  0.40280  0.62929  11.00000 -1.20000 
AFIX 0
C17   1     0.16592 -0.10672 -0.49137  11.00000  0.08380  0.07918  0.06060 =
 0.01611  0.03125  0.04132 
AFIX 43
H17   2     0.07636 -0.10365 -0.50832  11.00000 -1.20000 
AFIX 0
C18   1     0.25461  0.20953  0.55232  11.00000  0.08104  0.07467  0.06965 =
 0.03539  0.03283  0.03025 
AFIX 43
H18   2     0.21193  0.16298  0.59667  11.00000 -1.20000 
AFIX 0
C19   1     0.16440  0.45356  0.17406  11.00000  0.10123  0.05783  0.13560 =
 0.03731  0.07410  0.03706 
AFIX 43
H19   2     0.11609  0.43672  0.23965  11.00000 -1.20000 
AFIX 0
C20   1     0.39959 -0.05544 -0.33852  11.00000  0.06550  0.08831  0.10906 =
 -0.01780  0.04188  0.02411 
AFIX 43
H20   2     0.46997 -0.01766 -0.25055  11.00000 -1.20000 
AFIX 0
C21   1     0.37664  0.28381  0.63690  11.00000  0.07759  0.08747  0.05915 =
 0.02635  0.01674  0.03614 
AFIX 43
H21   2     0.41669  0.28675  0.73723  11.00000 -1.20000 
AFIX 0
C22   1     0.18487  0.54700  0.14486  11.00000  0.10438  0.06061  0.15681 =
 0.03777  0.06099  0.04356 
AFIX 43
H22   2     0.14738  0.59129  0.19003  11.00000 -1.20000 
AFIX 0
C23   1     0.25579  0.57642  0.05506  11.00000  0.09495  0.05539  0.08710 =
 0.03136  0.01467  0.01815 
AFIX 43
H23   2     0.26721  0.63954  0.03650  11.00000 -1.20000 
AFIX 0
C24   1     0.42760 -0.11900 -0.44636  11.00000  0.08315  0.10710  0.13326 =
 -0.01895  0.05743  0.03740 
AFIX 43
H24   2     0.51663 -0.12326 -0.42912  11.00000 -1.20000 
AFIX 0
C29   1     0.19471 -0.17026 -0.59752  11.00000  0.11375  0.08044  0.05984 =
 0.01193  0.03072  0.04641 
AFIX 43
H29   2     0.12431 -0.21029 -0.68412  11.00000 -1.20000 
AFIX 0
C30   1     0.31051  0.51165 -0.00807  11.00000  0.17082  0.07010  0.11988 =
 0.04552  0.08377  0.02551 
AFIX 43
H30   2     0.36402  0.53180 -0.06763  11.00000 -1.20000 
AFIX 0
N2    4     0.11034  0.01000 -0.25870  11.00000  0.05113  0.05180  0.05293 =
 0.00787  0.02551  0.01998 
C31   1     0.24098  0.01982 -0.24420  11.00000  0.05513  0.04877  0.06029 =
 0.01811  0.03197  0.02310 
C32   1    -0.02675  0.06837 -0.14449  11.00000  0.03953  0.05131  0.05226 =
 0.00929  0.01654  0.01556 
AFIX 43
H32   2    -0.09517  0.02013 -0.22517  11.00000 -1.20000 
AFIX 0
C33   1     0.26820 -0.04833 -0.36161  11.00000  0.06506  0.04972  0.06370 =
 0.01581  0.03828  0.02210 
C34   1     0.32829 -0.17399 -0.57435  11.00000  0.11745  0.07713  0.08414 =
 0.01445  0.05761  0.04982 
AFIX 43
H34   2     0.34888 -0.21429 -0.64697  11.00000 -1.20000 
AFIX 0

PART -1
C4    1     0.21893  0.51382  0.57894  10.50000  0.12094  0.15128  0.11140 =
 0.00235  0.03675  0.05737 
AFIX 137
H4a   2     0.24029  0.50307  0.67779  10.50000 -1.50000 
H4b   2     0.23385  0.46241  0.51210  10.50000 -1.50000 
H4c   2     0.27761  0.57824  0.58144  10.50000 -1.50000 
AFIX 0
C10   1     0.07456  0.51041  0.52645  10.50000  0.10971  0.11562  0.09961 =
 0.00314  0.03395  0.04557 
C11   1    -0.00932  0.42099  0.52948  10.50000  0.14623  0.10524  0.10441 =
 0.00763  0.05288  0.04246 
AFIX 43
H11   2     0.02350  0.37262  0.56704  10.50000 -1.20000 
AFIX 0
C13   1    -0.14680  0.40988  0.47149  10.50000  0.14658  0.12036  0.09688 =
 -0.00071  0.04708  0.03960 
AFIX 43
H13   2    -0.21114  0.35556  0.48210  10.50000 -1.20000 
AFIX 0
C1A   1    -0.19124  0.47150  0.40263  10.50000  0.14141  0.13844  0.11775 =
 0.00838  0.04379  0.04500 
AFIX 43
H1A   2    -0.28332  0.45015  0.34263  10.50000 -1.20000 
AFIX 0
C1B   1    -0.11051  0.56752  0.41236  10.50000  0.12666  0.11791  0.10543 =
 0.00016  0.03719  0.04686 
AFIX 43
H1B   2    -0.14578  0.61725  0.38334  10.50000 -1.20000 
AFIX 0
C1C   1     0.03171  0.58018  0.47176  10.50000  0.13117  0.10176  0.08348 =
 0.00639  0.05038  0.04775 
AFIX 43
H1C   2     0.09642  0.63859  0.47247  10.50000 -1.20000 
AFIX 0
HKLF 4

END
Q1 1 0.166667 0.479167 0 11 0.05 1.38
Q2 1 0.25 0.395833 -0.125 11 0.05 0.91
Q3 1 0.472222 0.208333 0.15625 11 0.05 0.68
Q4 1 0.055556 0.625 0.125 11 0.05 0.46
Q5 1 0.444444 0.458333 -0.0625 11 0.05 0.41

  REM The information below was added by Olex2.
  REM
  REM R1 = 0.0428 for 5024 Fo > 4sig(Fo) and 0.0630 for all 7595 data
  REM 354 parameters refined using 118 restraints
  REM Highest difference peak 1.3818, deepest hole -1.6436
  REM Mean Shift 0.0000, Max Shift -0.0002.

  REM +++ Tabular Listing of Refinement Information +++
  REM R1_all = 0.0630
  REM R1_gt = 0.0428
  REM wR_ref = 0.1170
  REM GOOF = 0.9084
  REM Shift_max = -0.0002
  REM Shift_mean = 0.0000
  REM Reflections_all = 7595
  REM Reflections_gt = 5024
  REM Parameters = 354
  REM Hole = -1.6436
  REM Peak = 1.3818
  REM Flack = n/a

  
;
_olex2_submission_special_instructions  'No special instructions were received'
loop_
  _restr_chirality_atom_site_label_1
  _restr_chirality_atom_site_label_2
  _restr_chirality_atom_site_label_3
  _restr_chirality_atom_site_label_4
  _restr_chirality_site_symmetry_1
  _restr_chirality_site_symmetry_2
  _restr_chirality_site_symmetry_3
  _restr_chirality_site_symmetry_4
  _restr_chirality_volume_target
  _restr_chirality_weight_param
  _restr_chirality_diff
 C10 C11 C1B C1C 1 1 1 1 0.0000 0.1000 -0.0394
 C11 C1B C1C C4 1 1 1 1 0.0000 0.1000 -0.3150
 C13 C10 C11 C1B 1 1 1 1 0.0000 0.1000 -0.0372
 C1B C1C C4 C1A 1 1 1 1 0.0000 0.1000 -0.1074

loop_
  _restr_distance_atom_site_label_1
  _restr_distance_atom_site_label_2
  _restr_distance_site_symmetry_2
  _restr_distance_target
  _restr_distance_target_weight_param
  _restr_distance_diff
 C4 C10 1 1.5100 0.0200 0.0506

loop_
  _restr_equal_distance_atom_site_label_1
  _restr_equal_distance_atom_site_label_2
  _restr_equal_distance_site_symmetry_2
  _restr_equal_distance_class_id
 C4 C11 1 3
 C4 C1C 1 3
 C10 C11 1 1
 C10 C13 1 2
 C10 C1B 1 2
 C11 C13 1 1
 C11 C1A 1 2
 C11 C1C 1 2
 C13 C1A 1 1
 C13 C1B 1 2
 C1A C1B 1 1
 C1B C1C 1 1
 C1C C10 1 1
 C1C C1A 1 2

loop_
  _restr_equal_distance_class_class_id
  _restr_equal_distance_class_target_weight_param
  _restr_equal_distance_class_average
  _restr_equal_distance_class_esd
  _restr_equal_distance_class_diff_max
 1 0.0200 1.3574 0.0397 0.0655
 2 0.0400 2.3436 0.0390 0.0670
 3 0.0400 2.3879 0.0762 0.0762

loop_
  _restr_RIGU_atom_site_label_1
  _restr_RIGU_atom_site_label_2
  _restr_RIGU_target_weight_param
  _restr_RIGU_U13_diff
  _restr_RIGU_U23_diff
  _restr_RIGU_U33_diff
 C4 C10 0.004000 0.000867 -0.001132 0.008337
 C4 C11 0.004000 0.038333 0.019105 -0.003543
 C4 C1C 0.004000 -0.018683 -0.025296 0.002394
 C10 C11 0.004000 0.013211 0.010417 0.010400
 C10 C13 0.004000 0.020820 0.006809 -0.022181
 C10 C1B 0.004000 -0.002330 -0.003708 -0.015798
 C10 C1C 0.004000 0.012435 -0.015616 0.009483
 C11 C13 0.004000 0.008133 -0.003172 -0.001597
 C11 C1A 0.004000 0.014040 0.013170 -0.003589
 C11 C1C 0.004000 -0.003858 0.008265 0.007028
 C13 C1A 0.004000 -0.005987 0.010051 -0.005470
 C13 C1B 0.004000 -0.015546 0.000016 0.001917
 C1A C1B 0.004000 -0.007939 -0.005724 0.012126
 C1A C1C 0.004000 -0.006086 0.012130 0.012243
 C1B C1C 0.004000 0.005362 0.006491 -0.005746

loop_
  _restr_U_similar_atom_site_label_1
  _restr_U_similar_atom_site_label_2
  _restr_U_similar_weight_param
 C4 C10 0.0400
 C4 C10 0.0100
 C10 C1C 0.0400
 C11 C13 0.0400
 C13 C1A 0.0400
 C13 C1A 0.0100
 C1A C1B 0.0400
 C1A C1B 0.0100
 C1B C1C 0.0400

